data/nesta_case2383wp_mp_nk.m
%%%%%%%%%%%%%%%%%%%%%%%%%%%%%%%%%%%%%%%%%%%%%%%%%%%%%%%%%%%%%%%%%%%%%%%%%%%
%%%%                                                                  %%%%%
%%%%      NICTA Energy System Test Case Archive (NESTA) - v0.7.0      %%%%%
%%%%              Optimal Power Flow - Typical Operation              %%%%%
%%%%                         05 - June - 2017                         %%%%%
%%%%                                                                  %%%%%
%%%%%%%%%%%%%%%%%%%%%%%%%%%%%%%%%%%%%%%%%%%%%%%%%%%%%%%%%%%%%%%%%%%%%%%%%%%
%
%   Power flow data for Polish system - winter 1999-2000 peak.
%
%   This case represents the Polish 400, 220 and 110 kV networks during
%   winter 1999-2000 peak conditions. It is part of the 7500+ bus
%   Europen UCTE system. To decrease the number of buses, the tie lines
%   to foreign networks were replaced by artificial load or generator
%   buses (180-186). Multiple generators at a bus have been aggregated.
%   Generators that are not centrally dispatchable in the Polish energy
%   market are given a cost of zero.
%
%   This data was graciously provided by, and is distributed with the
%   permission of, Roman Korab <roman.korab@polsl.pl>.
%
function mpc = nesta_case2383wp_mp
mpc.version = '2';
mpc.baseMVA = 100.0;

%% area data
%	area	refbus
mpc.areas = [
	1	 18;
];

%% bus data
%	bus_i	type	Pd	Qd	Gs	Bs	area	Vm	Va	baseKV	zone	Vmax	Vmin
mpc.bus = [
	1	 1	 0.0	 0.0	 0.0	 0.0	 1	    1.07185	    0.20018	 220.0	 1	    1.11000	    0.95000;
	2	 1	 0.0	 0.0	 0.0	 0.0	 1	    1.07290	    0.62725	 220.0	 1	    1.11000	    0.95000;
	3	 1	 0.0	 0.0	 0.0	 0.0	 1	    1.06513	  -23.08891	 220.0	 1	    1.11000	    0.95000;
	4	 1	 0.0	 0.0	 0.0	 0.0	 1	    1.06470	   -5.79541	 220.0	 1	    1.11000	    0.95000;
	5	 1	 0.0	 0.0	 0.0	 0.0	 1	    1.05547	  -17.01754	 220.0	 1	    1.11000	    0.95000;
	6	 1	 0.0	 0.0	 0.0	 0.0	 1	    1.01201	  -11.81803	 400.0	 1	    1.05000	    0.95000;
	7	 1	 0.0	 0.0	 0.0	 0.0	 1	    1.04837	  -18.69504	 220.0	 1	    1.11000	    0.95000;
	8	 1	 0.0	 0.0	 0.0	 0.0	 1	    1.01194	   -8.92469	 400.0	 1	    1.05000	    0.95000;
	9	 1	 0.0	 0.0	 0.0	 0.0	 1	    1.02752	  -14.74470	 400.0	 1	    1.05000	    0.95000;
	10	 2	 12.23	 9.0	 0.0	 0.0	 1	    1.09588	  -17.50195	 220.0	 1	    1.11000	    0.95000;
	11	 1	 0.0	 0.0	 0.0	 0.0	 1	    1.07057	   -4.39613	 220.0	 1	    1.11000	    0.95000;
	12	 1	 0.0	 0.0	 0.0	 0.0	 1	    1.05834	  -19.52857	 220.0	 1	    1.11000	    0.95000;
	13	 1	 0.0	 0.0	 0.0	 0.0	 1	    1.05339	  -18.83038	 220.0	 1	    1.11000	    0.95000;
	14	 1	 0.0	 0.0	 0.0	 0.0	 1	    1.05646	   -3.00822	 220.0	 1	    1.11000	    0.95000;
	15	 1	 0.0	 0.0	 0.0	 0.0	 1	    1.00004	  -13.56533	 400.0	 1	    1.05000	    0.95000;
	16	 2	 54.88	 100.0	 0.0	 0.0	 1	    1.07425	    0.71040	 220.0	 1	    1.11000	    0.95000;
	17	 2	 77.0	 150.0	 0.0	 0.0	 1	    1.07853	    1.48578	 220.0	 1	    1.11000	    0.95000;
	18	 3	 153.0	 350.0	 0.0	 0.0	 1	    1.00031	    0.00000	 400.0	 1	    1.05000	    0.95000;
	19	 1	 0.0	 0.0	 0.0	 0.0	 1	    1.05619	  -19.10572	 220.0	 1	    1.11000	    0.95000;
	20	 1	 0.0	 0.0	 0.0	 0.0	 1	    1.00748	   -1.33197	 400.0	 1	    1.05000	    0.95000;
	21	 1	 0.0	 0.0	 0.0	 0.0	 1	    1.04771	  -19.13121	 220.0	 1	    1.11000	    0.95000;
	22	 1	 0.0	 0.0	 0.0	 0.0	 1	    1.08157	   -8.26345	 220.0	 1	    1.11000	    0.95000;
	23	 1	 0.0	 0.0	 0.0	 0.0	 1	    1.05613	  -14.84398	 220.0	 2	    1.11000	    0.95000;
	24	 1	 0.0	 0.0	 0.0	 0.0	 1	    1.05303	  -10.80853	 220.0	 2	    1.11000	    0.95000;
	25	 1	 0.0	 0.0	 0.0	 0.0	 1	    1.05504	   -9.27314	 220.0	 2	    1.11000	    0.95000;
	26	 1	 0.0	 0.0	 0.0	 0.0	 1	    1.04891	  -17.72555	 220.0	 2	    1.11000	    0.95000;
	27	 1	 0.0	 0.0	 0.0	 0.0	 1	    1.05066	   -8.51324	 220.0	 2	    1.11000	    0.95000;
	28	 1	 0.0	 0.0	 0.0	 0.0	 1	    1.05065	   -8.50896	 220.0	 2	    1.11000	    0.95000;
	29	 2	 25.98	 60.0	 0.0	 0.0	 1	    1.07948	  -13.07321	 220.0	 2	    1.11000	    0.95000;
	30	 2	 25.98	 60.0	 0.0	 0.0	 1	    1.07939	  -13.07445	 220.0	 2	    1.11000	    0.95000;
	31	 2	 20.98	 50.0	 0.0	 0.0	 1	    1.00963	   -8.69477	 400.0	 2	    1.05000	    0.95000;
	32	 1	 0.0	 0.0	 0.0	 0.0	 1	    1.00961	   -8.73309	 400.0	 2	    1.05000	    0.95000;
	33	 1	 0.0	 0.0	 0.0	 0.0	 1	    1.04557	   -9.29104	 220.0	 2	    1.11000	    0.95000;
	34	 1	 0.0	 0.0	 0.0	 0.0	 1	    1.03341	   -9.17009	 400.0	 2	    1.05000	    0.95000;
	35	 1	 0.0	 0.0	 0.0	 0.0	 1	    1.03345	   -9.17817	 400.0	 2	    1.05000	    0.95000;
	36	 1	 0.0	 0.0	 0.0	 0.0	 1	    0.99336	  -12.03635	 400.0	 2	    1.05000	    0.95000;
	37	 1	 0.0	 0.0	 0.0	 0.0	 1	    1.06031	  -15.88796	 220.0	 2	    1.11000	    0.95000;
	38	 1	 0.0	 0.0	 0.0	 0.0	 1	    1.06031	  -15.88691	 220.0	 2	    1.11000	    0.95000;
	39	 1	 0.0	 0.0	 0.0	 0.0	 1	    1.00528	   -7.84336	 400.0	 2	    1.05000	    0.95000;
	40	 1	 0.0	 0.0	 0.0	 0.0	 1	    1.00527	   -7.83495	 400.0	 2	    1.05000	    0.95000;
	41	 2	 11.99	 30.0	 0.0	 0.0	 1	    1.05694	   -7.16884	 220.0	 2	    1.11000	    0.95000;
	42	 2	 11.99	 30.0	 0.0	 0.0	 1	    1.05695	   -7.18122	 220.0	 2	    1.11000	    0.95000;
	43	 2	 23.98	 60.0	 0.0	 0.0	 1	    1.01219	   -5.56742	 400.0	 2	    1.05000	    0.95000;
	44	 2	 23.98	 60.0	 0.0	 0.0	 1	    1.01221	   -5.57933	 400.0	 2	    1.05000	    0.95000;
	45	 2	 159.84	 75.0	 0.0	 0.0	 1	    1.06502	  -14.16702	 220.0	 2	    1.11000	    0.95000;
	46	 1	 0.0	 0.0	 0.0	 0.0	 1	    1.06504	  -14.16558	 220.0	 2	    1.11000	    0.95000;
	47	 1	 0.0	 0.0	 0.0	 0.0	 1	    1.04750	   -9.26312	 220.0	 2	    1.11000	    0.95000;
	48	 1	 0.0	 0.0	 0.0	 0.0	 1	    1.06362	  -13.18292	 220.0	 2	    1.11000	    0.95000;
	49	 1	 0.0	 0.0	 0.0	 0.0	 1	    1.06365	  -13.18711	 220.0	 2	    1.11000	    0.95000;
	50	 1	 0.0	 0.0	 0.0	 0.0	 1	    1.01899	   -7.34424	 400.0	 2	    1.05000	    0.95000;
	51	 1	 0.0	 0.0	 0.0	 0.0	 1	    1.01909	   -7.36295	 400.0	 2	    1.05000	    0.95000;
	52	 1	 0.0	 0.0	 0.0	 0.0	 1	    1.05469	  -11.68512	 220.0	 2	    1.11000	    0.95000;
	53	 1	 0.0	 0.0	 0.0	 0.0	 1	    1.05540	  -11.54029	 220.0	 2	    1.11000	    0.95000;
	54	 1	 0.0	 0.0	 0.0	 0.0	 1	    1.05514	   -9.20554	 220.0	 2	    1.11000	    0.95000;
	55	 1	 0.0	 0.0	 0.0	 0.0	 1	    1.06637	  -14.95162	 220.0	 2	    1.11000	    0.95000;
	56	 1	 0.0	 0.0	 0.0	 0.0	 1	    1.05461	   -3.16206	 220.0	 3	    1.11000	    0.95000;
	57	 1	 22.98	 10.96	 0.0	 0.0	 1	    1.07239	   -6.04553	 220.0	 3	    1.11000	    0.95000;
	58	 1	 21.98	 5.79	 0.0	 0.0	 1	    1.07263	   -6.04544	 220.0	 3	    1.11000	    0.95000;
	59	 1	 0.0	 0.0	 0.0	 0.0	 1	    1.08898	    1.74459	 220.0	 3	    1.11000	    0.95000;
	60	 1	 0.0	 0.0	 0.0	 0.0	 1	    1.07601	   -2.45403	 220.0	 3	    1.11000	    0.95000;
	61	 1	 0.0	 0.0	 0.0	 0.0	 1	    1.09833	    3.34816	 220.0	 3	    1.11000	    0.95000;
	62	 1	 0.0	 0.0	 0.0	 0.0	 1	    1.09830	    3.34979	 220.0	 3	    1.11000	    0.95000;
	63	 2	 37.37	 52.69	 0.0	 0.0	 1	    1.09439	    2.12705	 220.0	 3	    1.11000	    0.95000;
	64	 2	 35.37	 55.32	 0.0	 0.0	 1	    1.09525	    1.97479	 220.0	 3	    1.11000	    0.95000;
	65	 1	 13.39	 2.02	 0.0	 0.0	 1	    1.08064	    0.22089	 220.0	 3	    1.11000	    0.95000;
	66	 1	 0.0	 0.0	 0.0	 0.0	 1	    1.08495	   -5.50509	 220.0	 3	    1.11000	    0.95000;
	67	 2	 60.4	 92.1	 0.0	 0.0	 1	    1.03105	   -3.64418	 400.0	 3	    1.05000	    0.95000;
	68	 1	 0.0	 0.0	 0.0	 0.0	 1	    1.08257	   -4.35633	 220.0	 3	    1.11000	    0.95000;
	69	 1	 0.0	 0.0	 0.0	 0.0	 1	    1.08391	    0.29322	 220.0	 3	    1.11000	    0.95000;
	70	 1	 0.0	 0.0	 0.0	 0.0	 1	    1.05904	   -2.34375	 220.0	 3	    1.11000	    0.95000;
	71	 1	 0.0	 0.0	 0.0	 0.0	 1	    1.07304	   -0.58991	 220.0	 3	    1.11000	    0.95000;
	72	 1	 0.0	 0.0	 0.0	 0.0	 1	    1.07304	   -0.58991	 220.0	 3	    1.11000	    0.95000;
	73	 1	 0.0	 0.0	 0.0	 0.0	 1	    1.06214	   -1.56037	 220.0	 3	    1.11000	    0.95000;
	74	 1	 0.0	 0.0	 0.0	 0.0	 1	    1.05946	   -2.48360	 220.0	 3	    1.11000	    0.95000;
	75	 1	 0.0	 0.0	 0.0	 0.0	 1	    0.99950	   -2.10614	 400.0	 3	    1.05000	    0.95000;
	76	 1	 0.0	 0.0	 0.0	 0.0	 1	    0.99945	   -2.11026	 400.0	 3	    1.05000	    0.95000;
	77	 1	 0.0	 0.0	 0.0	 0.0	 1	    1.07122	   -1.16656	 220.0	 3	    1.11000	    0.95000;
	78	 1	 0.0	 0.0	 0.0	 0.0	 1	    1.07040	   -3.27307	 220.0	 3	    1.11000	    0.95000;
	79	 1	 0.0	 0.0	 0.0	 0.0	 1	    1.08219	    0.19142	 220.0	 3	    1.11000	    0.95000;
	80	 1	 0.0	 0.0	 0.0	 0.0	 1	    1.07305	   -5.99339	 220.0	 3	    1.11000	    0.95000;
	81	 1	 0.0	 0.0	 0.0	 0.0	 1	    1.07306	   -5.99313	 220.0	 3	    1.11000	    0.95000;
	82	 1	 0.0	 0.0	 0.0	 0.0	 1	    1.08961	    2.27071	 220.0	 3	    1.11000	    0.95000;
	83	 2	 15.99	 22.97	 0.0	 0.0	 1	    1.08410	    0.32095	 220.0	 3	    1.11000	    0.95000;
	84	 2	 15.79	 22.27	 0.0	 0.0	 1	    1.08422	    0.31986	 220.0	 3	    1.11000	    0.95000;
	85	 2	 9.99	 17.01	 0.0	 0.0	 1	    1.07391	   -1.05345	 220.0	 3	    1.11000	    0.95000;
	86	 2	 9.99	 16.66	 0.0	 0.0	 1	    1.07382	   -1.05119	 220.0	 3	    1.11000	    0.95000;
	87	 1	 11.09	 16.22	 0.0	 0.0	 1	    1.07008	   -1.55355	 220.0	 3	    1.11000	    0.95000;
	88	 1	 0.0	 0.0	 0.0	 0.0	 1	    1.07011	   -1.55417	 220.0	 3	    1.11000	    0.95000;
	89	 1	 0.0	 0.0	 0.0	 0.0	 1	    1.09161	    0.01220	 220.0	 3	    1.11000	    0.95000;
	90	 1	 0.0	 0.0	 0.0	 0.0	 1	    1.07591	   -0.54642	 220.0	 3	    1.11000	    0.95000;
	91	 1	 0.0	 0.0	 0.0	 0.0	 1	    1.08203	    0.58758	 220.0	 3	    1.11000	    0.95000;
	92	 1	 0.0	 0.0	 0.0	 0.0	 1	    0.98751	   -4.94628	 400.0	 3	    1.05000	    0.95000;
	93	 2	 9.99	 16.39	 0.0	 0.0	 1	    1.09155	    1.03616	 220.0	 3	    1.11000	    0.95000;
	94	 1	 0.0	 0.0	 0.0	 0.0	 1	    1.09152	    1.03484	 220.0	 3	    1.11000	    0.95000;
	95	 2	 6.89	 8.15	 0.0	 0.0	 1	    1.09792	    0.80344	 220.0	 3	    1.11000	    0.95000;
	96	 1	 0.0	 0.0	 0.0	 0.0	 1	    1.09792	    0.79889	 220.0	 3	    1.11000	    0.95000;
	97	 2	 8.69	 5.26	 0.0	 0.0	 1	    1.07148	   -3.70964	 220.0	 3	    1.11000	    0.95000;
	98	 1	 0.0	 0.0	 0.0	 0.0	 1	    1.00914	   -6.43568	 400.0	 3	    1.05000	    0.95000;
	99	 1	 0.0	 0.0	 0.0	 0.0	 1	    1.00919	   -6.42614	 400.0	 3	    1.05000	    0.95000;
	100	 1	 0.0	 0.0	 0.0	 0.0	 1	    1.00237	   -4.52620	 400.0	 3	    1.05000	    0.95000;
	101	 1	 0.0	 0.0	 0.0	 0.0	 1	    1.00242	   -4.51727	 400.0	 3	    1.05000	    0.95000;
	102	 1	 0.0	 0.0	 0.0	 0.0	 1	    1.09407	    0.09172	 220.0	 3	    1.11000	    0.95000;
	103	 2	 18.09	 23.76	 0.0	 0.0	 1	    1.07570	   -0.64658	 220.0	 3	    1.11000	    0.95000;
	104	 2	 33.68	 46.11	 0.0	 0.0	 1	    1.07590	   -0.63978	 220.0	 3	    1.11000	    0.95000;
	105	 2	 33.78	 62.95	 0.0	 0.0	 1	    0.97185	   -4.43051	 400.0	 3	    1.05000	    0.95000;
	106	 1	 0.0	 0.0	 0.0	 0.0	 1	    0.97203	   -4.44148	 400.0	 3	    1.05000	    0.95000;
	107	 1	 0.0	 0.0	 0.0	 0.0	 1	    1.05773	   -2.67790	 220.0	 3	    1.11000	    0.95000;
	108	 1	 0.0	 0.0	 0.0	 0.0	 1	    1.05953	   -2.49187	 220.0	 3	    1.11000	    0.95000;
	109	 2	 1.0	 22.36	 0.0	 0.0	 1	    1.10171	    4.06810	 220.0	 3	    1.11000	    0.95000;
	110	 2	 1.0	 22.18	 0.0	 0.0	 1	    1.10164	    4.07008	 220.0	 3	    1.11000	    0.95000;
	111	 2	 26.49	 18.0	 0.0	 0.0	 1	    1.11000	   -8.96947	 220.0	 4	    1.11000	    0.95000;
	112	 1	 0.0	 0.0	 0.0	 0.0	 1	    1.10989	   -8.96789	 220.0	 4	    1.11000	    0.95000;
	113	 1	 0.0	 0.0	 0.0	 0.0	 1	    1.06070	  -19.19229	 220.0	 4	    1.11000	    0.95000;
	114	 1	 0.0	 0.0	 0.0	 0.0	 1	    1.07398	  -18.02049	 220.0	 4	    1.11000	    0.95000;
	115	 1	 0.0	 0.0	 0.0	 0.0	 1	    0.98587	  -15.51911	 400.0	 4	    1.05000	    0.95000;
	116	 1	 0.0	 0.0	 0.0	 0.0	 1	    0.98584	  -15.51072	 400.0	 4	    1.05000	    0.95000;
	117	 1	 0.0	 0.0	 0.0	 0.0	 1	    1.07339	  -22.75106	 220.0	 4	    1.11000	    0.95000;
	118	 1	 0.0	 0.0	 0.0	 0.0	 1	    1.05168	  -30.00726	 220.0	 4	    1.11000	    0.95000;
	119	 1	 0.0	 0.0	 0.0	 0.0	 1	    1.05168	  -30.00726	 220.0	 4	    1.11000	    0.95000;
	120	 1	 0.0	 0.0	 0.0	 0.0	 1	    1.04220	  -28.72383	 220.0	 4	    1.11000	    0.95000;
	121	 1	 0.0	 0.0	 0.0	 0.0	 1	    1.06878	  -20.33589	 220.0	 4	    1.11000	    0.95000;
	122	 1	 0.0	 0.0	 0.0	 0.0	 1	    1.06878	  -20.33589	 220.0	 4	    1.11000	    0.95000;
	123	 2	 5.5	 7.0	 0.0	 0.0	 1	    1.10991	  -12.54427	 220.0	 4	    1.11000	    0.95000;
	124	 2	 8.79	 17.0	 0.0	 0.0	 1	    1.10993	  -12.54221	 220.0	 4	    1.11000	    0.95000;
	125	 2	 35.7	 18.3	 0.0	 0.0	 1	    1.08889	  -26.74812	 220.0	 4	    1.11000	    0.95000;
	126	 1	 25.28	 15.9	 0.0	 0.0	 1	    1.08878	  -26.73912	 220.0	 4	    1.11000	    0.95000;
	127	 2	 25.71	 15.3	 0.0	 0.0	 1	    1.03812	  -20.24806	 400.0	 4	    1.05000	    0.95000;
	128	 1	 0.0	 0.0	 0.0	 0.0	 1	    1.03805	  -20.25633	 400.0	 4	    1.05000	    0.95000;
	129	 1	 0.0	 0.0	 0.0	 0.0	 1	    1.04448	  -25.00640	 220.0	 4	    1.11000	    0.95000;
	130	 1	 0.0	 0.0	 0.0	 0.0	 1	    1.03022	  -25.60302	 220.0	 4	    1.11000	    0.95000;
	131	 2	 68.67	 70.0	 0.0	 0.0	 1	    1.09855	  -14.84033	 220.0	 4	    1.11000	    0.95000;
	132	 2	 33.0	 45.0	 0.0	 0.0	 1	    1.09868	  -14.86010	 220.0	 4	    1.11000	    0.95000;
	133	 1	 0.0	 0.0	 0.0	 0.0	 1	    1.00430	  -15.09850	 400.0	 4	    1.05000	    0.95000;
	134	 1	 0.0	 0.0	 0.0	 0.0	 1	    1.00432	  -15.09760	 400.0	 4	    1.05000	    0.95000;
	135	 1	 0.0	 0.0	 0.0	 0.0	 1	    1.05221	  -29.94291	 220.0	 4	    1.11000	    0.95000;
	136	 1	 0.0	 0.0	 0.0	 0.0	 1	    1.05221	  -29.94291	 220.0	 4	    1.11000	    0.95000;
	137	 1	 0.0	 0.0	 0.0	 0.0	 1	    0.99668	  -12.48200	 400.0	 4	    1.05000	    0.95000;
	138	 1	 0.0	 0.0	 0.0	 0.0	 1	    0.99668	  -12.48200	 400.0	 4	    1.05000	    0.95000;
	139	 2	 33.2	 22.6	 0.0	 0.0	 1	    1.11000	  -12.73191	 220.0	 4	    1.11000	    0.95000;
	140	 2	 29.23	 19.6	 0.0	 0.0	 1	    1.10999	  -12.74426	 220.0	 4	    1.11000	    0.95000;
	141	 1	 0.0	 0.0	 0.0	 0.0	 1	    1.04810	  -28.41615	 220.0	 4	    1.11000	    0.95000;
	142	 1	 0.0	 0.0	 0.0	 0.0	 1	    1.04877	  -30.21891	 220.0	 4	    1.11000	    0.95000;
	143	 1	 0.0	 0.0	 0.0	 0.0	 1	    1.07194	  -24.17285	 220.0	 4	    1.11000	    0.95000;
	144	 1	 0.0	 0.0	 0.0	 0.0	 1	    1.07185	  -24.17231	 220.0	 4	    1.11000	    0.95000;
	145	 1	 0.0	 0.0	 0.0	 0.0	 1	    0.97830	  -23.77581	 400.0	 4	    1.05000	    0.95000;
	146	 1	 0.0	 0.0	 0.0	 0.0	 1	    0.97830	  -23.77581	 400.0	 4	    1.05000	    0.95000;
	147	 1	 0.0	 0.0	 0.0	 0.0	 1	    1.04208	  -22.67542	 220.0	 4	    1.11000	    0.95000;
	148	 1	 0.0	 0.0	 0.0	 0.0	 1	    1.04213	  -22.66993	 220.0	 4	    1.11000	    0.95000;
	149	 1	 0.0	 0.0	 0.0	 0.0	 1	    1.06863	  -24.88013	 220.0	 4	    1.11000	    0.95000;
	150	 1	 0.0	 0.0	 0.0	 0.0	 1	    1.06351	  -18.58999	 220.0	 4	    1.11000	    0.95000;
	151	 1	 0.0	 0.0	 0.0	 0.0	 1	    1.06353	  -18.59644	 220.0	 4	    1.11000	    0.95000;
	152	 1	 0.0	 0.0	 0.0	 0.0	 1	    1.05731	  -16.25090	 220.0	 4	    1.11000	    0.95000;
	153	 1	 0.0	 0.0	 0.0	 0.0	 1	    1.05731	  -16.25090	 220.0	 4	    1.11000	    0.95000;
	154	 1	 0.0	 0.0	 0.0	 0.0	 1	    1.02590	  -24.50444	 220.0	 4	    1.11000	    0.95000;
	155	 1	 0.0	 0.0	 0.0	 0.0	 1	    1.05293	  -20.98726	 220.0	 5	    1.11000	    0.95000;
	156	 1	 0.0	 0.0	 0.0	 0.0	 1	    1.11000	  -24.09660	 220.0	 5	    1.11000	    0.95000;
	157	 1	 0.0	 0.0	 0.0	 0.0	 1	    1.02592	  -22.23124	 400.0	 5	    1.05000	    0.95000;
	158	 1	 0.0	 0.0	 0.0	 0.0	 1	    1.02589	  -22.22820	 400.0	 5	    1.05000	    0.95000;
	159	 1	 0.0	 0.0	 0.0	 0.0	 1	    1.02517	  -20.85183	 400.0	 5	    1.05000	    0.95000;
	160	 1	 0.0	 0.0	 0.0	 0.0	 1	    1.02522	  -20.85657	 400.0	 5	    1.05000	    0.95000;
	161	 1	 0.0	 0.0	 0.0	 0.0	 1	    1.05167	  -25.42844	 220.0	 5	    1.11000	    0.95000;
	162	 1	 0.0	 0.0	 0.0	 0.0	 1	    1.05168	  -25.42944	 220.0	 5	    1.11000	    0.95000;
	163	 1	 0.0	 0.0	 0.0	 0.0	 1	    1.08437	  -20.87988	 220.0	 5	    1.11000	    0.95000;
	164	 1	 0.0	 0.0	 0.0	 0.0	 1	    1.08435	  -20.88393	 220.0	 5	    1.11000	    0.95000;
	165	 1	 0.0	 0.0	 0.0	 0.0	 1	    0.99660	  -19.99983	 400.0	 5	    1.05000	    0.95000;
	166	 1	 0.0	 0.0	 0.0	 0.0	 1	    1.06513	  -20.18695	 220.0	 5	    1.11000	    0.95000;
	167	 1	 0.0	 0.0	 0.0	 0.0	 1	    1.06516	  -20.18377	 220.0	 5	    1.11000	    0.95000;
	168	 1	 0.0	 0.0	 0.0	 0.0	 1	    1.02661	  -22.60548	 400.0	 5	    1.05000	    0.95000;
	169	 1	 0.0	 0.0	 0.0	 0.0	 1	    1.02659	  -22.61245	 400.0	 5	    1.05000	    0.95000;
	170	 1	 0.0	 0.0	 0.0	 0.0	 1	    1.04969	  -23.63871	 220.0	 5	    1.11000	    0.95000;
	171	 1	 0.0	 0.0	 0.0	 0.0	 1	    1.04972	  -23.63660	 220.0	 5	    1.11000	    0.95000;
	172	 1	 0.0	 0.0	 0.0	 0.0	 1	    1.05927	  -22.12633	 220.0	 5	    1.11000	    0.95000;
	173	 1	 0.0	 0.0	 0.0	 0.0	 1	    1.05923	  -22.12579	 220.0	 5	    1.11000	    0.95000;
	174	 1	 0.0	 0.0	 0.0	 0.0	 1	    1.05705	  -20.37907	 220.0	 5	    1.11000	    0.95000;
	175	 1	 0.0	 0.0	 0.0	 0.0	 1	    1.05703	  -20.38558	 220.0	 5	    1.11000	    0.95000;
	176	 2	 0.0	 40.0	 0.0	 0.0	 1	    1.02859	  -19.23085	 400.0	 5	    1.05000	    0.95000;
	177	 2	 0.0	 40.0	 0.0	 0.0	 1	    1.02875	  -19.23039	 400.0	 5	    1.05000	    0.95000;
	178	 1	 0.0	 0.0	 0.0	 0.0	 1	    1.07728	  -26.13319	 220.0	 5	    1.11000	    0.95000;
	179	 1	 0.0	 0.0	 0.0	 0.0	 1	    1.07732	  -26.12906	 220.0	 5	    1.11000	    0.95000;
	180	 2	 339.85	 49.6	 0.0	 0.0	 2	    0.95000	   -7.44822	 400.0	 6	    1.05000	    0.95000;
	181	 2	 0.0	 0.0	 0.0	 0.0	 3	    1.11000	   -8.12341	 220.0	 6	    1.11000	    0.95000;
	182	 2	 0.0	 0.0	 0.0	 0.0	 5	    1.00737	  -14.81727	 400.0	 6	    1.05000	    0.95000;
	183	 1	 150.0	 0.0	 0.0	 0.0	 3	    1.03958	  -10.12379	 400.0	 6	    1.05000	    0.95000;
	184	 2	 317.34	 50.3	 0.0	 0.0	 2	    1.07984	   -3.72905	 220.0	 6	    1.11000	    0.95000;
	185	 2	 362.43	 36.7	 0.0	 0.0	 2	    0.95000	   -8.32083	 400.0	 6	    1.05000	    0.95000;
	186	 2	 33.33	 1.0	 0.0	 0.0	 5	    1.08855	  -26.87166	 220.0	 6	    1.11000	    0.95000;
	187	 1	 7.12	 1.5	 0.0	 0.0	 1	    1.06144	  -23.27020	 110.0	 1	    1.12000	    0.95000;
	188	 1	 7.63	 1.0	 0.0	 0.0	 1	    1.03267	  -29.14787	 110.0	 1	    1.12000	    0.95000;
	189	 1	 9.77	 8.7	 0.0	 0.0	 1	    0.97903	  -27.15464	 110.0	 1	    1.12000	    0.95000;
	190	 1	 6.12	 1.5	 0.0	 0.0	 1	    1.08618	   -3.91777	 110.0	 1	    1.12000	    0.95000;
	191	 1	 6.12	 1.6	 0.0	 0.0	 1	    1.07212	   -5.25327	 110.0	 1	    1.12000	    0.95000;
	192	 2	 30.56	 12.0	 0.0	 0.0	 1	    1.12000	  -19.68322	 110.0	 1	    1.12000	    0.95000;
	193	 1	 15.28	 3.0	 0.0	 0.0	 1	    1.11786	  -19.56627	 110.0	 1	    1.12000	    0.95000;
	194	 1	 0.0	 0.0	 0.0	 0.0	 1	    1.11796	  -19.82817	 110.0	 1	    1.12000	    0.95000;
	195	 1	 8.14	 2.0	 0.0	 0.0	 1	    1.07071	  -24.09767	 110.0	 1	    1.12000	    0.95000;
	196	 2	 6.92	 1.5	 0.0	 0.0	 1	    1.01602	  -27.92060	 110.0	 1	    1.12000	    0.95000;
	197	 1	 6.92	 1.5	 0.0	 0.0	 1	    1.06431	  -12.69496	 110.0	 1	    1.12000	    0.95000;
	198	 2	 12.32	 1.7	 0.0	 0.0	 1	    1.06478	  -23.98301	 110.0	 1	    1.12000	    0.95000;
	199	 1	 1.43	 0.5	 0.0	 0.0	 1	    1.09503	   -6.44280	 110.0	 1	    1.12000	    0.95000;
	200	 1	 1.08	 0.5	 0.0	 0.0	 1	    1.09755	  -23.07718	 110.0	 1	    1.12000	    0.95000;
...
];

%% generator data
%	bus	Pg	Qg	Qmax	Qmin	Vg	mBase	status	Pmax	Pmin	Pc1	Pc2	Qc1min	Qc1max	Qc2min	Qc2max	ramp_agc	ramp_10	ramp_30	ramp_q	apf
mpc.gen = [
	10	 400.0	 75.701	 120.0	 0.0	 1.09588	 168.0	 1	 400.0	 70.0	 0.0	 0.0	 0.0	 0.0	 0.0	 0.0	 0.0	 0.0	 0.0	 0.0	 0.0;
	16	 720.0	 140.602	 440.0	 -40.0	 1.07425	 823.0	 1	 720.0	 120.0	 0.0	 0.0	 0.0	 0.0	 0.0	 0.0	 0.0	 0.0	 0.0	 0.0	 0.0;
	17	 1080.0	 301.559	 660.0	 -60.0	 1.07853	 1234.0	 1	 1080.0	 120.0	 0.0	 0.0	 0.0	 0.0	 0.0	 0.0	 0.0	 0.0	 0.0	 0.0	 0.0;
	18	 1907.729	 -140.0	 1540.0	 -140.0	 1.00031	 2879.0	 1	 2520.0	 120.0	 0.0	 0.0	 0.0	 0.0	 0.0	 0.0	 0.0	 0.0	 0.0	 0.0	 0.0;
	29	 70.0	 239.993	 240.0	 0.0	 1.07948	 511.0	 1	 400.0	 70.0	 0.0	 0.0	 0.0	 0.0	 0.0	 0.0	 0.0	 0.0	 0.0	 0.0	 0.0;
	30	 70.0	 21.3	 240.0	 0.0	 1.07939	 511.0	 1	 800.0	 70.0	 0.0	 0.0	 0.0	 0.0	 0.0	 0.0	 0.0	 0.0	 0.0	 0.0	 0.0;
	31	 1000.0	 0.0	 350.0	 0.0	 1.00963	 420.0	 1	 1000.0	 150.0	 0.0	 0.0	 0.0	 0.0	 0.0	 0.0	 0.0	 0.0	 0.0	 0.0	 0.0;
	41	 200.0	 0.0	 120.0	 0.0	 1.05694	 241.0	 1	 200.0	 70.0	 0.0	 0.0	 0.0	 0.0	 0.0	 0.0	 0.0	 0.0	 0.0	 0.0	 0.0;
	42	 70.0	 0.0	 120.0	 0.0	 1.05695	 241.0	 1	 410.0	 70.0	 0.0	 0.0	 0.0	 0.0	 0.0	 0.0	 0.0	 0.0	 0.0	 0.0	 0.0;
	43	 410.0	 0.0	 240.0	 0.0	 1.01219	 482.0	 1	 410.0	 70.0	 0.0	 0.0	 0.0	 0.0	 0.0	 0.0	 0.0	 0.0	 0.0	 0.0	 0.0;
	44	 410.0	 0.0	 240.0	 0.0	 1.01221	 482.0	 1	 410.0	 70.0	 0.0	 0.0	 0.0	 0.0	 0.0	 0.0	 0.0	 0.0	 0.0	 0.0	 0.0;
	45	 42.2	 21.0	 21.0	 0.0	 1.06502	 49.0	 1	 42.2	 39.14	 0.0	 0.0	 0.0	 0.0	 0.0	 0.0	 0.0	 0.0	 0.0	 0.0	 0.0;
	63	 650.0	 135.413	 302.0	 0.0	 1.09439	 473.0	 1	 650.0	 145.0	 0.0	 0.0	 0.0	 0.0	 0.0	 0.0	 0.0	 0.0	 0.0	 0.0	 0.0;
	64	 450.0	 100.941	 311.0	 2.0	 1.09525	 475.0	 1	 450.0	 145.0	 0.0	 0.0	 0.0	 0.0	 0.0	 0.0	 0.0	 0.0	 0.0	 0.0	 0.0;
	67	 750.0	 286.867	 449.0	 0.0	 1.03105	 864.0	 1	 750.0	 220.0	 0.0	 0.0	 0.0	 0.0	 0.0	 0.0	 0.0	 0.0	 0.0	 0.0	 0.0;
	83	 225.0	 -88.94	 190.0	 -89.0	 1.0841	 239.0	 1	 225.0	 140.0	 0.0	 0.0	 0.0	 0.0	 0.0	 0.0	 0.0	 0.0	 0.0	 0.0	 0.0;
	84	 225.0	 179.627	 190.0	 -89.0	 1.08422	 251.0	 1	 225.0	 140.0	 0.0	 0.0	 0.0	 0.0	 0.0	 0.0	 0.0	 0.0	 0.0	 0.0	 0.0;
	85	 120.0	 124.992	 125.0	 -50.0	 1.07391	 133.0	 1	 120.0	 40.0	 0.0	 0.0	 0.0	 0.0	 0.0	 0.0	 0.0	 0.0	 0.0	 0.0	 0.0;
	86	 120.0	 -47.2	 125.0	 -50.0	 1.07382	 133.0	 1	 120.0	 40.0	 0.0	 0.0	 0.0	 0.0	 0.0	 0.0	 0.0	 0.0	 0.0	 0.0	 0.0;
	93	 120.0	 90.0	 90.0	 5.0	 1.09155	 123.0	 1	 120.0	 80.0	 0.0	 0.0	 0.0	 0.0	 0.0	 0.0	 0.0	 0.0	 0.0	 0.0	 0.0;
	95	 110.0	 27.0	 68.0	 27.0	 1.09792	 105.0	 1	 110.0	 50.0	 0.0	 0.0	 0.0	 0.0	 0.0	 0.0	 0.0	 0.0	 0.0	 0.0	 0.0;
	97	 87.6	 27.0	 68.0	 27.0	 1.07148	 105.0	 1	 87.6	 83.26	 0.0	 0.0	 0.0	 0.0	 0.0	 0.0	 0.0	 0.0	 0.0	 0.0	 0.0;
	103	 160.0	 -81.985	 177.0	 -82.0	 1.0757	 239.0	 1	 400.0	 160.0	 0.0	 0.0	 0.0	 0.0	 0.0	 0.0	 0.0	 0.0	 0.0	 0.0	 0.0;
	104	 225.0	 250.303	 379.0	 -177.0	 1.0759	 490.0	 1	 225.0	 140.0	 0.0	 0.0	 0.0	 0.0	 0.0	 0.0	 0.0	 0.0	 0.0	 0.0	 0.0;
	105	 430.0	 -165.0	 353.0	 -165.0	 0.97185	 502.0	 1	 430.0	 160.0	 0.0	 0.0	 0.0	 0.0	 0.0	 0.0	 0.0	 0.0	 0.0	 0.0	 0.0;
	109	 250.0	 49.962	 65.0	 0.0	 1.10171	 277.0	 1	 250.0	 80.0	 0.0	 0.0	 0.0	 0.0	 0.0	 0.0	 0.0	 0.0	 0.0	 0.0	 0.0;
	110	 250.0	 49.049	 65.0	 0.0	 1.10164	 280.0	 1	 250.0	 80.0	 0.0	 0.0	 0.0	 0.0	 0.0	 0.0	 0.0	 0.0	 0.0	 0.0	 0.0;
	111	 360.0	 158.407	 270.0	 0.0	 1.11	 401.0	 1	 360.0	 40.0	 0.0	 0.0	 0.0	 0.0	 0.0	 0.0	 0.0	 0.0	 0.0	 0.0	 0.0;
	123	 110.0	 40.0	 40.0	 0.0	 1.10991	 98.0	 1	 110.0	 20.0	 0.0	 0.0	 0.0	 0.0	 0.0	 0.0	 0.0	 0.0	 0.0	 0.0	 0.0;
	124	 125.0	 90.0	 90.0	 0.0	 1.10993	 132.0	 1	 125.0	 45.0	 0.0	 0.0	 0.0	 0.0	 0.0	 0.0	 0.0	 0.0	 0.0	 0.0	 0.0;
	125	 164.992	 252.766	 360.0	 0.0	 1.08889	 654.0	 1	 860.0	 70.0	 0.0	 0.0	 0.0	 0.0	 0.0	 0.0	 0.0	 0.0	 0.0	 0.0	 0.0;
	127	 690.0	 79.622	 360.0	 0.0	 1.03812	 540.0	 1	 690.0	 70.0	 0.0	 0.0	 0.0	 0.0	 0.0	 0.0	 0.0	 0.0	 0.0	 0.0	 0.0;
	131	 871.762	 0.001	 360.0	 0.0	 1.09855	 696.0	 1	 1060.0	 70.0	 0.0	 0.0	 0.0	 0.0	 0.0	 0.0	 0.0	 0.0	 0.0	 0.0	 0.0;
	132	 70.0	 260.331	 480.0	 0.0	 1.09868	 732.0	 1	 600.0	 70.0	 0.0	 0.0	 0.0	 0.0	 0.0	 0.0	 0.0	 0.0	 0.0	 0.0	 0.0;
	139	 600.0	 143.964	 360.0	 0.0	 1.11	 714.0	 1	 600.0	 70.0	 0.0	 0.0	 0.0	 0.0	 0.0	 0.0	 0.0	 0.0	 0.0	 0.0	 0.0;
	140	 200.0	 120.0	 120.0	 0.0	 1.10999	 240.0	 1	 200.0	 70.0	 0.0	 0.0	 0.0	 0.0	 0.0	 0.0	 0.0	 0.0	 0.0	 0.0	 0.0;
	176	 600.0	 -119.994	 220.0	 -120.0	 1.02859	 430.0	 1	 600.0	 70.0	 0.0	 0.0	 0.0	 0.0	 0.0	 0.0	 0.0	 0.0	 0.0	 0.0	 0.0;
	177	 200.0	 190.555	 220.0	 -120.0	 1.02875	 430.0	 1	 200.0	 70.0	 0.0	 0.0	 0.0	 0.0	 0.0	 0.0	 0.0	 0.0	 0.0	 0.0	 0.0;
	180	 0.0	 -67.752	 99999.0	 -99999.0	 0.95	 7485.0	 1	 0.0	 0.0	 0.0	 0.0	 0.0	 0.0	 0.0	 0.0	 0.0	 0.0	 0.0	 0.0	 0.0;
	181	 175.0	 30.229	 99999.0	 -99999.0	 1.11	 210.0	 1	 175.0	 174.0	 0.0	 0.0	 0.0	 0.0	 0.0	 0.0	 0.0	 0.0	 0.0	 0.0	 0.0;
	182	 307.59	 144.95	 99999.0	 -99999.0	 1.00737	 13465.0	 1	 307.59	 306.0	 0.0	 0.0	 0.0	 0.0	 0.0	 0.0	 0.0	 0.0	 0.0	 0.0	 0.0;
	184	 0.0	 72.64	 99999.0	 -99999.0	 1.07984	 8353.0	 1	 0.0	 0.0	 0.0	 0.0	 0.0	 0.0	 0.0	 0.0	 0.0	 0.0	 0.0	 0.0	 0.0;
	185	 0.0	 -52.313	 99999.0	 -99999.0	 0.95	 14254.0	 1	 0.0	 0.0	 0.0	 0.0	 0.0	 0.0	 0.0	 0.0	 0.0	 0.0	 0.0	 0.0	 0.0;
	186	 0.0	 -4.883	 99999.0	 -99999.0	 1.08855	 7401.0	 1	 0.0	 0.0	 0.0	 0.0	 0.0	 0.0	 0.0	 0.0	 0.0	 0.0	 0.0	 0.0	 0.0;
	192	 95.0	 42.593	 50.0	 0.0	 1.12	 114.0	 1	 95.0	 90.25	 0.0	 0.0	 0.0	 0.0	 0.0	 0.0	 0.0	 0.0	 0.0	 0.0	 0.0;
	196	 0.9	 1.0	 1.0	 0.0	 1.01602	 1.0	 1	 0.9	 0.86	 0.0	 0.0	 0.0	 0.0	 0.0	 0.0	 0.0	 0.0	 0.0	 0.0	 0.0;
	198	 0.8	 1.0	 1.0	 0.0	 1.06478	 1.0	 1	 0.8	 0.76	 0.0	 0.0	 0.0	 0.0	 0.0	 0.0	 0.0	 0.0	 0.0	 0.0	 0.0;
	205	 15.0	 3.44	 10.0	 0.0	 1.12	 18.0	 1	 15.0	 14.25	 0.0	 0.0	 0.0	 0.0	 0.0	 0.0	 0.0	 0.0	 0.0	 0.0	 0.0;
	213	 11.0	 0.0	 8.0	 0.0	 1.05533	 13.0	 1	 11.0	 10.45	 0.0	 0.0	 0.0	 0.0	 0.0	 0.0	 0.0	 0.0	 0.0	 0.0	 0.0;
	264	 2.5	 2.0	 2.0	 0.0	 1.06652	 3.0	 1	 2.5	 2.38	 0.0	 0.0	 0.0	 0.0	 0.0	 0.0	 0.0	 0.0	 0.0	 0.0	 0.0;
	269	 6.0	 5.0	 5.0	 0.0	 1.10337	 7.0	 1	 6.0	 5.7	 0.0	 0.0	 0.0	 0.0	 0.0	 0.0	 0.0	 0.0	 0.0	 0.0	 0.0;
	277	 70.0	 42.0	 42.0	 0.0	 1.11832	 84.0	 1	 70.0	 66.5	 0.0	 0.0	 0.0	 0.0	 0.0	 0.0	 0.0	 0.0	 0.0	 0.0	 0.0;
	278	 60.0	 20.325	 40.0	 0.0	 1.12	 72.0	 1	 60.0	 57.0	 0.0	 0.0	 0.0	 0.0	 0.0	 0.0	 0.0	 0.0	 0.0	 0.0	 0.0;
	279	 60.0	 18.238	 40.0	 0.0	 1.12	 72.0	 1	 60.0	 57.0	 0.0	 0.0	 0.0	 0.0	 0.0	 0.0	 0.0	 0.0	 0.0	 0.0	 0.0;
	281	 120.0	 45.556	 90.0	 0.0	 1.12	 144.0	 1	 120.0	 114.0	 0.0	 0.0	 0.0	 0.0	 0.0	 0.0	 0.0	 0.0	 0.0	 0.0	 0.0;
	282	 40.0	 37.035	 40.0	 0.0	 1.12	 48.0	 1	 40.0	 38.0	 0.0	 0.0	 0.0	 0.0	 0.0	 0.0	 0.0	 0.0	 0.0	 0.0	 0.0;
	289	 2.5	 3.0	 3.0	 0.0	 1.11651	 3.0	 1	 2.5	 2.38	 0.0	 0.0	 0.0	 0.0	 0.0	 0.0	 0.0	 0.0	 0.0	 0.0	 0.0;
	294	 2.0	 1.0	 1.0	 0.0	 1.10004	 2.0	 1	 2.0	 1.9	 0.0	 0.0	 0.0	 0.0	 0.0	 0.0	 0.0	 0.0	 0.0	 0.0	 0.0;
	314	 1.5	 0.0	 1.0	 0.0	 1.08103	 2.0	 1	 1.5	 1.43	 0.0	 0.0	 0.0	 0.0	 0.0	 0.0	 0.0	 0.0	 0.0	 0.0	 0.0;
	328	 44.0	 21.0	 21.0	 0.0	 1.10556	 53.0	 1	 44.0	 41.8	 0.0	 0.0	 0.0	 0.0	 0.0	 0.0	 0.0	 0.0	 0.0	 0.0	 0.0;
	329	 44.0	 21.0	 21.0	 0.0	 1.08975	 53.0	 1	 44.0	 41.8	 0.0	 0.0	 0.0	 0.0	 0.0	 0.0	 0.0	 0.0	 0.0	 0.0	 0.0;
	330	 44.0	 21.0	 21.0	 0.0	 1.11934	 53.0	 1	 44.0	 41.8	 0.0	 0.0	 0.0	 0.0	 0.0	 0.0	 0.0	 0.0	 0.0	 0.0	 0.0;
	331	 43.0	 21.0	 21.0	 0.0	 1.10942	 52.0	 1	 43.0	 40.85	 0.0	 0.0	 0.0	 0.0	 0.0	 0.0	 0.0	 0.0	 0.0	 0.0	 0.0;
	334	 1.5	 1.0	 1.0	 0.0	 1.08039	 2.0	 1	 1.5	 1.43	 0.0	 0.0	 0.0	 0.0	 0.0	 0.0	 0.0	 0.0	 0.0	 0.0	 0.0;
	346	 200.0	 54.267	 120.0	 0.0	 1.12	 180.0	 1	 200.0	 70.0	 0.0	 0.0	 0.0	 0.0	 0.0	 0.0	 0.0	 0.0	 0.0	 0.0	 0.0;
	347	 10.0	 15.0	 15.0	 0.0	 1.11337	 12.0	 1	 10.0	 10.0	 0.0	 0.0	 0.0	 0.0	 0.0	 0.0	 0.0	 0.0	 0.0	 0.0	 0.0;
	359	 1.5	 1.0	 1.0	 0.0	 1.09238	 2.0	 1	 1.5	 1.43	 0.0	 0.0	 0.0	 0.0	 0.0	 0.0	 0.0	 0.0	 0.0	 0.0	 0.0;
	365	 5.1	 3.0	 3.0	 0.0	 1.08862	 6.0	 1	 5.1	 4.85	 0.0	 0.0	 0.0	 0.0	 0.0	 0.0	 0.0	 0.0	 0.0	 0.0	 0.0;
	382	 8.0	 5.0	 5.0	 0.0	 1.04583	 10.0	 1	 8.0	 7.6	 0.0	 0.0	 0.0	 0.0	 0.0	 0.0	 0.0	 0.0	 0.0	 0.0	 0.0;
	383	 8.0	 5.0	 5.0	 0.0	 1.04558	 10.0	 1	 8.0	 7.6	 0.0	 0.0	 0.0	 0.0	 0.0	 0.0	 0.0	 0.0	 0.0	 0.0	 0.0;
	385	 6.0	 4.0	 4.0	 0.0	 1.05137	 7.0	 1	 6.0	 5.7	 0.0	 0.0	 0.0	 0.0	 0.0	 0.0	 0.0	 0.0	 0.0	 0.0	 0.0;
	390	 4.5	 3.0	 3.0	 0.0	 1.06696	 5.0	 1	 4.5	 4.28	 0.0	 0.0	 0.0	 0.0	 0.0	 0.0	 0.0	 0.0	 0.0	 0.0	 0.0;
	395	 10.0	 8.0	 8.0	 0.0	 1.09855	 12.0	 1	 10.0	 9.5	 0.0	 0.0	 0.0	 0.0	 0.0	 0.0	 0.0	 0.0	 0.0	 0.0	 0.0;
	404	 3.0	 3.0	 3.0	 0.0	 1.05853	 4.0	 1	 3.0	 2.85	 0.0	 0.0	 0.0	 0.0	 0.0	 0.0	 0.0	 0.0	 0.0	 0.0	 0.0;
	426	 3.2	 0.0	 2.0	 0.0	 1.05331	 4.0	 1	 3.2	 3.04	 0.0	 0.0	 0.0	 0.0	 0.0	 0.0	 0.0	 0.0	 0.0	 0.0	 0.0;
	444	 1.0	 1.0	 1.0	 0.0	 1.08901	 1.0	 1	 1.0	 0.95	 0.0	 0.0	 0.0	 0.0	 0.0	 0.0	 0.0	 0.0	 0.0	 0.0	 0.0;
	451	 4.5	 3.0	 3.0	 0.0	 1.08137	 5.0	 1	 4.5	 4.28	 0.0	 0.0	 0.0	 0.0	 0.0	 0.0	 0.0	 0.0	 0.0	 0.0	 0.0;
	482	 1.0	 0.0	 1.0	 0.0	 1.07013	 1.0	 1	 1.0	 0.95	 0.0	 0.0	 0.0	 0.0	 0.0	 0.0	 0.0	 0.0	 0.0	 0.0	 0.0;
	492	 2.0	 1.0	 1.0	 0.0	 1.08276	 2.0	 1	 2.0	 1.9	 0.0	 0.0	 0.0	 0.0	 0.0	 0.0	 0.0	 0.0	 0.0	 0.0	 0.0;
	493	 234.0	 130.0	 130.0	 0.0	 1.11318	 281.0	 1	 234.0	 222.3	 0.0	 0.0	 0.0	 0.0	 0.0	 0.0	 0.0	 0.0	 0.0	 0.0	 0.0;
	494	 234.0	 130.0	 130.0	 0.0	 1.07842	 281.0	 1	 234.0	 222.3	 0.0	 0.0	 0.0	 0.0	 0.0	 0.0	 0.0	 0.0	 0.0	 0.0	 0.0;
	514	 115.0	 90.0	 90.0	 0.0	 1.07759	 138.0	 1	 115.0	 109.25	 0.0	 0.0	 0.0	 0.0	 0.0	 0.0	 0.0	 0.0	 0.0	 0.0	 0.0;
	515	 115.0	 54.705	 90.0	 0.0	 1.0445	 138.0	 1	 115.0	 109.25	 0.0	 0.0	 0.0	 0.0	 0.0	 0.0	 0.0	 0.0	 0.0	 0.0	 0.0;
	525	 6.0	 4.0	 4.0	 0.0	 1.08535	 7.0	 1	 6.0	 5.7	 0.0	 0.0	 0.0	 0.0	 0.0	 0.0	 0.0	 0.0	 0.0	 0.0	 0.0;
	536	 6.0	 6.0	 6.0	 0.0	 1.05712	 7.0	 1	 6.0	 5.7	 0.0	 0.0	 0.0	 0.0	 0.0	 0.0	 0.0	 0.0	 0.0	 0.0	 0.0;
	537	 3.5	 3.0	 3.0	 0.0	 1.06204	 4.0	 1	 3.5	 3.33	 0.0	 0.0	 0.0	 0.0	 0.0	 0.0	 0.0	 0.0	 0.0	 0.0	 0.0;
	556	 2.7	 1.0	 1.0	 0.0	 1.0507	 3.0	 1	 2.7	 2.57	 0.0	 0.0	 0.0	 0.0	 0.0	 0.0	 0.0	 0.0	 0.0	 0.0	 0.0;
	580	 1.6	 0.0	 1.0	 0.0	 1.06613	 2.0	 1	 1.6	 1.52	 0.0	 0.0	 0.0	 0.0	 0.0	 0.0	 0.0	 0.0	 0.0	 0.0	 0.0;
	584	 2.7	 2.0	 2.0	 0.0	 1.04899	 3.0	 1	 2.7	 2.57	 0.0	 0.0	 0.0	 0.0	 0.0	 0.0	 0.0	 0.0	 0.0	 0.0	 0.0;
	585	 4.0	 2.0	 2.0	 0.0	 1.04933	 5.0	 1	 4.0	 3.8	 0.0	 0.0	 0.0	 0.0	 0.0	 0.0	 0.0	 0.0	 0.0	 0.0	 0.0;
	607	 0.8	 0.0	 0.0	 0.0	 1.05297	 1.0	 1	 0.8	 0.76	 0.0	 0.0	 0.0	 0.0	 0.0	 0.0	 0.0	 0.0	 0.0	 0.0	 0.0;
	612	 200.0	 102.673	 120.0	 0.0	 1.12	 256.0	 1	 200.0	 70.0	 0.0	 0.0	 0.0	 0.0	 0.0	 0.0	 0.0	 0.0	 0.0	 0.0	 0.0;
	613	 200.0	 120.0	 120.0	 0.0	 1.11997	 256.0	 1	 200.0	 70.0	 0.0	 0.0	 0.0	 0.0	 0.0	 0.0	 0.0	 0.0	 0.0	 0.0	 0.0;
	615	 1.4	 1.0	 1.0	 0.0	 1.06317	 2.0	 1	 1.4	 1.33	 0.0	 0.0	 0.0	 0.0	 0.0	 0.0	 0.0	 0.0	 0.0	 0.0	 0.0;
	623	 7.6	 5.0	 5.0	 0.0	 1.04971	 9.0	 1	 7.6	 7.22	 0.0	 0.0	 0.0	 0.0	 0.0	 0.0	 0.0	 0.0	 0.0	 0.0	 0.0;
	639	 9.6	 0.346	 4.0	 0.0	 1.06437	 12.0	 1	 9.6	 9.12	 0.0	 0.0	 0.0	 0.0	 0.0	 0.0	 0.0	 0.0	 0.0	 0.0	 0.0;
	651	 4.7	 2.0	 2.0	 0.0	 1.05857	 6.0	 1	 4.7	 4.47	 0.0	 0.0	 0.0	 0.0	 0.0	 0.0	 0.0	 0.0	 0.0	 0.0	 0.0;
	654	 1.4	 1.0	 1.0	 0.0	 1.06977	 2.0	 1	 1.4	 1.33	 0.0	 0.0	 0.0	 0.0	 0.0	 0.0	 0.0	 0.0	 0.0	 0.0	 0.0;
	664	 6.2	 6.0	 6.0	 0.0	 1.06446	 7.0	 1	 6.2	 5.89	 0.0	 0.0	 0.0	 0.0	 0.0	 0.0	 0.0	 0.0	 0.0	 0.0	 0.0;
	670	 2.7	 0.0	 2.0	 0.0	 1.05088	 3.0	 1	 2.7	 2.57	 0.0	 0.0	 0.0	 0.0	 0.0	 0.0	 0.0	 0.0	 0.0	 0.0	 0.0;
	674	 1.0	 0.0	 0.0	 0.0	 1.05165	 1.0	 1	 1.0	 0.95	 0.0	 0.0	 0.0	 0.0	 0.0	 0.0	 0.0	 0.0	 0.0	 0.0	 0.0;
	688	 70.0	 88.871	 120.0	 0.0	 1.07842	 242.0	 1	 202.0	 70.0	 0.0	 0.0	 0.0	 0.0	 0.0	 0.0	 0.0	 0.0	 0.0	 0.0	 0.0;
	692	 1.4	 0.0	 1.0	 0.0	 1.08669	 2.0	 1	 1.4	 1.33	 0.0	 0.0	 0.0	 0.0	 0.0	 0.0	 0.0	 0.0	 0.0	 0.0	 0.0;
	699	 3.8	 2.0	 2.0	 0.0	 1.05088	 5.0	 1	 3.8	 3.61	 0.0	 0.0	 0.0	 0.0	 0.0	 0.0	 0.0	 0.0	 0.0	 0.0	 0.0;
	712	 1.2	 1.0	 1.0	 0.0	 1.05014	 1.0	 1	 1.2	 1.14	 0.0	 0.0	 0.0	 0.0	 0.0	 0.0	 0.0	 0.0	 0.0	 0.0	 0.0;
	730	 6.9	 0.0	 3.0	 0.0	 1.06846	 8.0	 1	 6.9	 6.56	 0.0	 0.0	 0.0	 0.0	 0.0	 0.0	 0.0	 0.0	 0.0	 0.0	 0.0;
	732	 1.1	 0.503	 1.0	 0.0	 1.05497	 1.0	 1	 1.1	 1.05	 0.0	 0.0	 0.0	 0.0	 0.0	 0.0	 0.0	 0.0	 0.0	 0.0	 0.0;
	735	 4.1	 2.0	 2.0	 0.0	 1.06135	 5.0	 1	 4.1	 3.9	 0.0	 0.0	 0.0	 0.0	 0.0	 0.0	 0.0	 0.0	 0.0	 0.0	 0.0;
	740	 4.0	 0.0	 1.0	 0.0	 1.07883	 5.0	 1	 4.0	 3.8	 0.0	 0.0	 0.0	 0.0	 0.0	 0.0	 0.0	 0.0	 0.0	 0.0	 0.0;
	744	 134.0	 19.987	 60.0	 0.0	 1.09022	 161.0	 1	 134.0	 127.3	 0.0	 0.0	 0.0	 0.0	 0.0	 0.0	 0.0	 0.0	 0.0	 0.0	 0.0;
	754	 80.0	 30.0	 30.0	 0.0	 1.08548	 54.0	 1	 80.0	 10.0	 0.0	 0.0	 0.0	 0.0	 0.0	 0.0	 0.0	 0.0	 0.0	 0.0	 0.0;
	755	 85.0	 38.069	 80.0	 0.0	 1.06183	 110.0	 1	 250.0	 85.0	 0.0	 0.0	 0.0	 0.0	 0.0	 0.0	 0.0	 0.0	 0.0	 0.0	 0.0;
	760	 3.1	 2.0	 2.0	 0.0	 1.05635	 4.0	 1	 3.1	 2.95	 0.0	 0.0	 0.0	 0.0	 0.0	 0.0	 0.0	 0.0	 0.0	 0.0	 0.0;
	766	 2.1	 1.0	 1.0	 0.0	 1.05264	 3.0	 1	 2.1	 2.0	 0.0	 0.0	 0.0	 0.0	 0.0	 0.0	 0.0	 0.0	 0.0	 0.0	 0.0;
	784	 0.7	 0.0	 0.0	 0.0	 1.05828	 1.0	 1	 0.7	 0.67	 0.0	 0.0	 0.0	 0.0	 0.0	 0.0	 0.0	 0.0	 0.0	 0.0	 0.0;
	790	 49.8	 35.0	 35.0	 35.0	 1.0744	 60.0	 1	 49.8	 47.31	 0.0	 0.0	 0.0	 0.0	 0.0	 0.0	 0.0	 0.0	 0.0	 0.0	 0.0;
	795	 1.89	 1.0	 1.0	 1.0	 1.0696	 2.0	 1	 1.89	 1.8	 0.0	 0.0	 0.0	 0.0	 0.0	 0.0	 0.0	 0.0	 0.0	 0.0	 0.0;
	798	 2.99	 3.0	 3.0	 3.0	 1.07557	 4.0	 1	 2.99	 2.84	 0.0	 0.0	 0.0	 0.0	 0.0	 0.0	 0.0	 0.0	 0.0	 0.0	 0.0;
	814	 44.92	 16.162	 42.0	 0.0	 1.06049	 54.0	 1	 44.92	 42.67	 0.0	 0.0	 0.0	 0.0	 0.0	 0.0	 0.0	 0.0	 0.0	 0.0	 0.0;
	834	 55.0	 83.0	 83.0	 0.0	 1.09101	 110.0	 1	 55.0	 23.0	 0.0	 0.0	 0.0	 0.0	 0.0	 0.0	 0.0	 0.0	 0.0	 0.0	 0.0;
	878	 2.99	 0.0	 0.0	 0.0	 1.10466	 4.0	 1	 2.99	 2.84	 0.0	 0.0	 0.0	 0.0	 0.0	 0.0	 0.0	 0.0	 0.0	 0.0	 0.0;
	884	 2.49	 0.0	 0.0	 0.0	 1.05662	 3.0	 1	 2.49	 2.37	 0.0	 0.0	 0.0	 0.0	 0.0	 0.0	 0.0	 0.0	 0.0	 0.0	 0.0;
	892	 31.87	 34.581	 42.0	 6.0	 1.06648	 38.0	 1	 31.87	 30.28	 0.0	 0.0	 0.0	 0.0	 0.0	 0.0	 0.0	 0.0	 0.0	 0.0	 0.0;
	895	 8.96	 7.0	 7.0	 7.0	 1.07547	 11.0	 1	 8.96	 8.51	 0.0	 0.0	 0.0	 0.0	 0.0	 0.0	 0.0	 0.0	 0.0	 0.0	 0.0;
	901	 3.68	 2.0	 2.0	 2.0	 1.07134	 4.0	 1	 3.68	 3.5	 0.0	 0.0	 0.0	 0.0	 0.0	 0.0	 0.0	 0.0	 0.0	 0.0	 0.0;
	910	 4.58	 3.0	 3.0	 3.0	 1.06049	 6.0	 1	 4.58	 4.35	 0.0	 0.0	 0.0	 0.0	 0.0	 0.0	 0.0	 0.0	 0.0	 0.0	 0.0;
	911	 370.0	 87.029	 224.0	 0.0	 1.10905	 415.0	 1	 370.0	 280.0	 0.0	 0.0	 0.0	 0.0	 0.0	 0.0	 0.0	 0.0	 0.0	 0.0	 0.0;
	912	 370.0	 87.413	 224.0	 0.0	 1.10634	 415.0	 1	 370.0	 280.0	 0.0	 0.0	 0.0	 0.0	 0.0	 0.0	 0.0	 0.0	 0.0	 0.0	 0.0;
	914	 15.93	 10.0	 10.0	 10.0	 1.07401	 19.0	 1	 15.93	 15.13	 0.0	 0.0	 0.0	 0.0	 0.0	 0.0	 0.0	 0.0	 0.0	 0.0	 0.0;
	917	 2.09	 0.0	 0.0	 0.0	 1.10192	 3.0	 1	 2.09	 1.99	 0.0	 0.0	 0.0	 0.0	 0.0	 0.0	 0.0	 0.0	 0.0	 0.0	 0.0;
	919	 21.91	 12.0	 12.0	 12.0	 1.08194	 26.0	 1	 21.91	 20.81	 0.0	 0.0	 0.0	 0.0	 0.0	 0.0	 0.0	 0.0	 0.0	 0.0	 0.0;
	920	 1.99	 0.0	 0.0	 0.0	 1.07694	 2.0	 1	 1.99	 1.89	 0.0	 0.0	 0.0	 0.0	 0.0	 0.0	 0.0	 0.0	 0.0	 0.0	 0.0;
	929	 63.73	 29.0	 50.0	 29.0	 1.08286	 77.0	 1	 63.73	 60.54	 0.0	 0.0	 0.0	 0.0	 0.0	 0.0	 0.0	 0.0	 0.0	 0.0	 0.0;
	959	 2.49	 1.0	 1.0	 1.0	 1.02955	 3.0	 1	 2.49	 2.37	 0.0	 0.0	 0.0	 0.0	 0.0	 0.0	 0.0	 0.0	 0.0	 0.0	 0.0;
	968	 0.7	 0.0	 0.0	 0.0	 1.07257	 1.0	 1	 0.7	 0.67	 0.0	 0.0	 0.0	 0.0	 0.0	 0.0	 0.0	 0.0	 0.0	 0.0	 0.0;
	993	 3.98	 1.0	 1.0	 1.0	 1.05497	 5.0	 1	 3.98	 3.78	 0.0	 0.0	 0.0	 0.0	 0.0	 0.0	 0.0	 0.0	 0.0	 0.0	 0.0;
	994	 1.99	 1.0	 1.0	 1.0	 1.05497	 2.0	 1	 1.99	 1.89	 0.0	 0.0	 0.0	 0.0	 0.0	 0.0	 0.0	 0.0	 0.0	 0.0	 0.0;
	995	 20.0	 38.0	 38.0	 0.0	 1.08736	 60.0	 1	 100.0	 20.0	 0.0	 0.0	 0.0	 0.0	 0.0	 0.0	 0.0	 0.0	 0.0	 0.0	 0.0;
	996	 20.0	 0.0	 38.0	 0.0	 1.07836	 60.0	 1	 50.0	 20.0	 0.0	 0.0	 0.0	 0.0	 0.0	 0.0	 0.0	 0.0	 0.0	 0.0	 0.0;
	997	 20.0	 38.0	 38.0	 0.0	 1.05215	 60.0	 1	 50.0	 20.0	 0.0	 0.0	 0.0	 0.0	 0.0	 0.0	 0.0	 0.0	 0.0	 0.0	 0.0;
	1004	 4.28	 3.0	 3.0	 3.0	 1.08059	 5.0	 1	 4.28	 4.07	 0.0	 0.0	 0.0	 0.0	 0.0	 0.0	 0.0	 0.0	 0.0	 0.0	 0.0;
	1024	 0.1	 0.0	 0.0	 0.0	 1.08822	 0.0	 1	 0.1	 0.1	 0.0	 0.0	 0.0	 0.0	 0.0	 0.0	 0.0	 0.0	 0.0	 0.0	 0.0;
	1027	 24.9	 13.0	 13.0	 13.0	 1.10755	 30.0	 1	 24.9	 23.66	 0.0	 0.0	 0.0	 0.0	 0.0	 0.0	 0.0	 0.0	 0.0	 0.0	 0.0;
	1028	 2.99	 3.0	 3.0	 3.0	 1.1076	 4.0	 1	 2.99	 2.84	 0.0	 0.0	 0.0	 0.0	 0.0	 0.0	 0.0	 0.0	 0.0	 0.0	 0.0;
	1029	 24.9	 14.0	 14.0	 14.0	 1.10529	 30.0	 1	 24.9	 23.66	 0.0	 0.0	 0.0	 0.0	 0.0	 0.0	 0.0	 0.0	 0.0	 0.0	 0.0;
	1053	 59.76	 27.143	 53.0	 0.0	 1.06059	 72.0	 1	 59.76	 56.77	 0.0	 0.0	 0.0	 0.0	 0.0	 0.0	 0.0	 0.0	 0.0	 0.0	 0.0;
	1054	 29.88	 22.521	 31.0	 0.0	 1.07426	 36.0	 1	 29.88	 28.39	 0.0	 0.0	 0.0	 0.0	 0.0	 0.0	 0.0	 0.0	 0.0	 0.0	 0.0;
	1105	 7.97	 10.0	 10.0	 10.0	 1.07283	 10.0	 1	 7.97	 7.57	 0.0	 0.0	 0.0	 0.0	 0.0	 0.0	 0.0	 0.0	 0.0	 0.0	 0.0;
	1106	 22.91	 13.0	 13.0	 13.0	 1.07739	 28.0	 1	 22.91	 21.76	 0.0	 0.0	 0.0	 0.0	 0.0	 0.0	 0.0	 0.0	 0.0	 0.0	 0.0;
	1107	 10.56	 3.0	 3.0	 3.0	 1.07158	 13.0	 1	 10.56	 10.03	 0.0	 0.0	 0.0	 0.0	 0.0	 0.0	 0.0	 0.0	 0.0	 0.0	 0.0;
	1138	 44.82	 9.355	 41.0	 0.0	 1.0782	 54.0	 1	 44.82	 42.58	 0.0	 0.0	 0.0	 0.0	 0.0	 0.0	 0.0	 0.0	 0.0	 0.0	 0.0;
	1140	 230.0	 58.03	 199.0	 -87.0	 1.09383	 252.0	 1	 230.0	 70.0	 0.0	 0.0	 0.0	 0.0	 0.0	 0.0	 0.0	 0.0	 0.0	 0.0	 0.0;
	1141	 70.0	 75.128	 190.0	 -89.0	 1.09562	 251.0	 1	 225.0	 70.0	 0.0	 0.0	 0.0	 0.0	 0.0	 0.0	 0.0	 0.0	 0.0	 0.0	 0.0;
	1175	 37.84	 20.0	 20.0	 20.0	 1.08551	 45.0	 1	 37.84	 35.95	 0.0	 0.0	 0.0	 0.0	 0.0	 0.0	 0.0	 0.0	 0.0	 0.0	 0.0;
	1182	 40.0	 9.777	 125.0	 -50.0	 1.07369	 133.0	 1	 120.0	 40.0	 0.0	 0.0	 0.0	 0.0	 0.0	 0.0	 0.0	 0.0	 0.0	 0.0	 0.0;
	1183	 120.0	 7.899	 125.0	 -50.0	 1.05924	 133.0	 1	 120.0	 40.0	 0.0	 0.0	 0.0	 0.0	 0.0	 0.0	 0.0	 0.0	 0.0	 0.0	 0.0;
	1184	 40.0	 90.631	 125.0	 -50.0	 1.08117	 133.0	 1	 120.0	 40.0	 0.0	 0.0	 0.0	 0.0	 0.0	 0.0	 0.0	 0.0	 0.0	 0.0	 0.0;
	1191	 106.56	 31.268	 129.0	 -47.0	 1.09566	 128.0	 1	 106.56	 101.23	 0.0	 0.0	 0.0	 0.0	 0.0	 0.0	 0.0	 0.0	 0.0	 0.0	 0.0;
	1192	 250.0	 45.656	 125.0	 -50.0	 1.08029	 123.0	 1	 250.0	 80.0	 0.0	 0.0	 0.0	 0.0	 0.0	 0.0	 0.0	 0.0	 0.0	 0.0	 0.0;
	1201	 99.59	 0.034	 90.0	 0.0	 1.11221	 120.0	 1	 99.59	 94.61	 0.0	 0.0	 0.0	 0.0	 0.0	 0.0	 0.0	 0.0	 0.0	 0.0	 0.0;
	1202	 99.59	 81.543	 90.0	 0.0	 1.11225	 120.0	 1	 99.59	 94.61	 0.0	 0.0	 0.0	 0.0	 0.0	 0.0	 0.0	 0.0	 0.0	 0.0	 0.0;
	1203	 99.59	 55.62	 90.0	 0.0	 1.10981	 120.0	 1	 99.59	 94.61	 0.0	 0.0	 0.0	 0.0	 0.0	 0.0	 0.0	 0.0	 0.0	 0.0	 0.0;
	1232	 51.79	 27.053	 41.0	 0.0	 1.07074	 62.0	 1	 51.79	 49.2	 0.0	 0.0	 0.0	 0.0	 0.0	 0.0	 0.0	 0.0	 0.0	 0.0	 0.0;
	1233	 14.94	 21.735	 41.0	 0.0	 1.06262	 18.0	 1	 14.94	 14.19	 0.0	 0.0	 0.0	 0.0	 0.0	 0.0	 0.0	 0.0	 0.0	 0.0	 0.0;
	1244	 18.92	 20.0	 20.0	 20.0	 1.06799	 23.0	 1	 18.92	 17.97	 0.0	 0.0	 0.0	 0.0	 0.0	 0.0	 0.0	 0.0	 0.0	 0.0	 0.0;
	1247	 15.93	 12.0	 12.0	 12.0	 1.07099	 19.0	 1	 15.93	 15.13	 0.0	 0.0	 0.0	 0.0	 0.0	 0.0	 0.0	 0.0	 0.0	 0.0	 0.0;
	1250	 197.19	 51.73	 151.0	 0.0	 1.06132	 237.0	 1	 197.19	 187.33	 0.0	 0.0	 0.0	 0.0	 0.0	 0.0	 0.0	 0.0	 0.0	 0.0	 0.0;
	1268	 0.5	 0.0	 0.0	 0.0	 1.0479	 1.0	 1	 0.5	 0.48	 0.0	 0.0	 0.0	 0.0	 0.0	 0.0	 0.0	 0.0	 0.0	 0.0	 0.0;
	1316	 1.0	 0.0	 0.0	 0.0	 1.08619	 1.0	 1	 1.0	 0.95	 0.0	 0.0	 0.0	 0.0	 0.0	 0.0	 0.0	 0.0	 0.0	 0.0	 0.0;
	1325	 1.39	 0.0	 0.0	 0.0	 1.10854	 2.0	 1	 1.39	 1.32	 0.0	 0.0	 0.0	 0.0	 0.0	 0.0	 0.0	 0.0	 0.0	 0.0	 0.0;
	1349	 1.49	 0.0	 0.0	 0.0	 1.02874	 2.0	 1	 1.49	 1.42	 0.0	 0.0	 0.0	 0.0	 0.0	 0.0	 0.0	 0.0	 0.0	 0.0	 0.0;
	1356	 1.0	 2.0	 2.0	 2.0	 1.06491	 1.0	 1	 1.0	 0.95	 0.0	 0.0	 0.0	 0.0	 0.0	 0.0	 0.0	 0.0	 0.0	 0.0	 0.0;
	1359	 0.8	 1.0	 1.0	 1.0	 1.06024	 1.0	 1	 0.8	 0.76	 0.0	 0.0	 0.0	 0.0	 0.0	 0.0	 0.0	 0.0	 0.0	 0.0	 0.0;
	1393	 12.75	 8.78	 11.0	 0.0	 1.05994	 15.0	 1	 12.75	 12.11	 0.0	 0.0	 0.0	 0.0	 0.0	 0.0	 0.0	 0.0	 0.0	 0.0	 0.0;
	1403	 4.28	 1.0	 1.0	 1.0	 1.06062	 5.0	 1	 4.28	 4.07	 0.0	 0.0	 0.0	 0.0	 0.0	 0.0	 0.0	 0.0	 0.0	 0.0	 0.0;
	1416	 367.425	 44.666	 180.0	 10.0	 1.10198	 246.0	 1	 371.0	 80.0	 0.0	 0.0	 0.0	 0.0	 0.0	 0.0	 0.0	 0.0	 0.0	 0.0	 0.0;
	1417	 120.0	 36.092	 120.0	 5.0	 1.12	 123.0	 1	 120.0	 80.0	 0.0	 0.0	 0.0	 0.0	 0.0	 0.0	 0.0	 0.0	 0.0	 0.0	 0.0;
	1418	 20.0	 5.0	 90.0	 5.0	 1.06136	 123.0	 1	 20.0	 5.0	 0.0	 0.0	 0.0	 0.0	 0.0	 0.0	 0.0	 0.0	 0.0	 0.0	 0.0;
	1426	 495.0	 63.586	 68.0	 27.0	 1.12	 106.0	 1	 495.0	 20.0	 0.0	 0.0	 0.0	 0.0	 0.0	 0.0	 0.0	 0.0	 0.0	 0.0	 0.0;
	1429	 0.2	 0.0	 0.0	 0.0	 1.04604	 0.0	 1	 0.2	 0.19	 0.0	 0.0	 0.0	 0.0	 0.0	 0.0	 0.0	 0.0	 0.0	 0.0	 0.0;
	1469	 0.6	 0.0	 0.0	 0.0	 1.05541	 1.0	 1	 0.6	 0.57	 0.0	 0.0	 0.0	 0.0	 0.0	 0.0	 0.0	 0.0	 0.0	 0.0	 0.0;
	1475	 2.09	 2.0	 2.0	 2.0	 1.06097	 3.0	 1	 2.09	 1.99	 0.0	 0.0	 0.0	 0.0	 0.0	 0.0	 0.0	 0.0	 0.0	 0.0	 0.0;
	1504	 31.17	 2.0	 2.0	 2.0	 1.05573	 37.0	 1	 31.17	 29.61	 0.0	 0.0	 0.0	 0.0	 0.0	 0.0	 0.0	 0.0	 0.0	 0.0	 0.0;
	1505	 48.8	 4.0	 4.0	 4.0	 1.07699	 59.0	 1	 48.8	 46.36	 0.0	 0.0	 0.0	 0.0	 0.0	 0.0	 0.0	 0.0	 0.0	 0.0	 0.0;
	1514	 2.29	 1.0	 1.0	 1.0	 1.09514	 3.0	 1	 2.29	 2.18	 0.0	 0.0	 0.0	 0.0	 0.0	 0.0	 0.0	 0.0	 0.0	 0.0	 0.0;
	1534	 0.3	 0.0	 0.0	 0.0	 1.05593	 0.0	 1	 0.3	 0.29	 0.0	 0.0	 0.0	 0.0	 0.0	 0.0	 0.0	 0.0	 0.0	 0.0	 0.0;
	1536	 160.0	 38.264	 190.0	 -89.0	 1.07561	 251.0	 1	 225.0	 160.0	 0.0	 0.0	 0.0	 0.0	 0.0	 0.0	 0.0	 0.0	 0.0	 0.0	 0.0;
	1537	 225.0	 68.806	 203.0	 -95.0	 1.08464	 255.0	 1	 225.0	 160.0	 0.0	 0.0	 0.0	 0.0	 0.0	 0.0	 0.0	 0.0	 0.0	 0.0	 0.0;
	1538	 215.0	 32.195	 190.0	 -89.0	 1.07874	 255.0	 1	 215.0	 70.0	 0.0	 0.0	 0.0	 0.0	 0.0	 0.0	 0.0	 0.0	 0.0	 0.0	 0.0;
	1542	 8.96	 3.0	 3.0	 3.0	 1.07692	 11.0	 1	 8.96	 8.51	 0.0	 0.0	 0.0	 0.0	 0.0	 0.0	 0.0	 0.0	 0.0	 0.0	 0.0;
	1543	 1.2	 0.0	 0.0	 0.0	 1.09486	 1.0	 1	 1.2	 1.14	 0.0	 0.0	 0.0	 0.0	 0.0	 0.0	 0.0	 0.0	 0.0	 0.0	 0.0;
	1550	 1.79	 1.0	 1.0	 1.0	 1.06021	 2.0	 1	 1.79	 1.7	 0.0	 0.0	 0.0	 0.0	 0.0	 0.0	 0.0	 0.0	 0.0	 0.0	 0.0;
	1566	 54.77	 25.22	 47.0	 20.0	 1.07558	 66.0	 1	 54.77	 52.03	 0.0	 0.0	 0.0	 0.0	 0.0	 0.0	 0.0	 0.0	 0.0	 0.0	 0.0;
	1587	 63.74	 27.0	 27.0	 27.0	 1.06998	 77.0	 1	 63.74	 60.55	 0.0	 0.0	 0.0	 0.0	 0.0	 0.0	 0.0	 0.0	 0.0	 0.0	 0.0;
	1600	 17.43	 3.0	 3.0	 3.0	 1.0621	 21.0	 1	 17.43	 16.56	 0.0	 0.0	 0.0	 0.0	 0.0	 0.0	 0.0	 0.0	 0.0	 0.0	 0.0;
	1602	 120.0	 23.432	 90.0	 0.0	 1.11999	 144.0	 1	 120.0	 40.0	 0.0	 0.0	 0.0	 0.0	 0.0	 0.0	 0.0	 0.0	 0.0	 0.0	 0.0;
	1603	 120.0	 52.669	 90.0	 0.0	 1.12	 144.0	 1	 120.0	 40.0	 0.0	 0.0	 0.0	 0.0	 0.0	 0.0	 0.0	 0.0	 0.0	 0.0	 0.0;
	1609	 0.3	 0.0	 0.0	 0.0	 1.0683	 0.0	 1	 0.3	 0.29	 0.0	 0.0	 0.0	 0.0	 0.0	 0.0	 0.0	 0.0	 0.0	 0.0	 0.0;
	1617	 2.0	 0.0	 0.0	 0.0	 1.10926	 2.0	 1	 2.0	 1.9	 0.0	 0.0	 0.0	 0.0	 0.0	 0.0	 0.0	 0.0	 0.0	 0.0	 0.0;
	1620	 1.6	 0.0	 0.0	 0.0	 1.10822	 2.0	 1	 1.6	 1.52	 0.0	 0.0	 0.0	 0.0	 0.0	 0.0	 0.0	 0.0	 0.0	 0.0	 0.0;
...
];

%% generator cost data
%	2	startup	shutdown	n	c(n-1)	...	c0
mpc.gencost = [
	2	 0.0	 0.0	 3	   0.000000	 117.950000	   0.000000;
	2	 0.0	 0.0	 3	   0.000000	  48.890000	   0.000000;
	2	 0.0	 0.0	 3	   0.000000	  98.470000	   0.000000;
	2	 0.0	 0.0	 3	   0.000000	 128.730000	   0.000000;
	2	 0.0	 0.0	 3	   0.000000	 158.230000	   0.000000;
	2	 0.0	 0.0	 3	   0.000000	 165.620000	   0.000000;
	2	 0.0	 0.0	 3	   0.000000	  71.220000	   0.000000;
	2	 0.0	 0.0	 3	   0.000000	 102.250000	   0.000000;
	2	 0.0	 0.0	 3	   0.000000	 147.830000	   0.000000;
	2	 0.0	 0.0	 3	   0.000000	  75.370000	   0.000000;
	2	 0.0	 0.0	 3	   0.000000	  86.010000	   0.000000;
	2	 0.0	 0.0	 3	   0.000000	   0.000000	   0.000000;
	2	 0.0	 0.0	 3	   0.000000	  68.740000	   0.000000;
	2	 0.0	 0.0	 3	   0.000000	  81.910000	   0.000000;
	2	 0.0	 0.0	 3	   0.000000	  81.880000	   0.000000;
	2	 0.0	 0.0	 3	   0.000000	  58.780000	   0.000000;
	2	 0.0	 0.0	 3	   0.000000	  85.570000	   0.000000;
	2	 0.0	 0.0	 3	   0.000000	 101.380000	   0.000000;
	2	 0.0	 0.0	 3	   0.000000	 122.430000	   0.000000;
	2	 0.0	 0.0	 3	   0.000000	  96.620000	   0.000000;
	2	 0.0	 0.0	 3	   0.000000	 106.730000	   0.000000;
	2	 0.0	 0.0	 3	   0.000000	   0.000000	   0.000000;
	2	 0.0	 0.0	 3	   0.000000	 151.940000	   0.000000;
	2	 0.0	 0.0	 3	   0.000000	 107.510000	   0.000000;
	2	 0.0	 0.0	 3	   0.000000	 103.530000	   0.000000;
	2	 0.0	 0.0	 3	   0.000000	   0.000000	   0.000000;
	2	 0.0	 0.0	 3	   0.000000	   0.000000	   0.000000;
	2	 0.0	 0.0	 3	   0.000000	 136.480000	   0.000000;
	2	 0.0	 0.0	 3	   0.000000	 157.460000	   0.000000;
	2	 0.0	 0.0	 3	   0.000000	  83.970000	   0.000000;
	2	 0.0	 0.0	 3	   0.000000	 170.740000	   0.000000;
	2	 0.0	 0.0	 3	   0.000000	  80.910000	   0.000000;
	2	 0.0	 0.0	 3	   0.000000	 147.600000	   0.000000;
	2	 0.0	 0.0	 3	   0.000000	 158.750000	   0.000000;
	2	 0.0	 0.0	 3	   0.000000	 146.940000	   0.000000;
	2	 0.0	 0.0	 3	   0.000000	  96.320000	   0.000000;
	2	 0.0	 0.0	 3	   0.000000	   0.000000	   0.000000;
	2	 0.0	 0.0	 3	   0.000000	   0.000000	   0.000000;
	2	 0.0	 0.0	 3	   0.000000	   0.000000	   0.000000;
	2	 0.0	 0.0	 3	   0.000000	   0.000000	   0.000000;
	2	 0.0	 0.0	 3	   0.000000	   0.000000	   0.000000;
	2	 0.0	 0.0	 3	   0.000000	   0.000000	   0.000000;
	2	 0.0	 0.0	 3	   0.000000	   0.000000	   0.000000;
	2	 0.0	 0.0	 3	   0.000000	   0.000000	   0.000000;
	2	 0.0	 0.0	 3	   0.000000	   0.000000	   0.000000;
	2	 0.0	 0.0	 3	   0.000000	   0.000000	   0.000000;
	2	 0.0	 0.0	 3	   0.000000	   0.000000	   0.000000;
	2	 0.0	 0.0	 3	   0.000000	   0.000000	   0.000000;
	2	 0.0	 0.0	 3	   0.000000	   0.000000	   0.000000;
	2	 0.0	 0.0	 3	   0.000000	   0.000000	   0.000000;
	2	 0.0	 0.0	 3	   0.000000	   0.000000	   0.000000;
	2	 0.0	 0.0	 3	   0.000000	   0.000000	   0.000000;
	2	 0.0	 0.0	 3	   0.000000	   0.000000	   0.000000;
	2	 0.0	 0.0	 3	   0.000000	   0.000000	   0.000000;
	2	 0.0	 0.0	 3	   0.000000	   0.000000	   0.000000;
	2	 0.0	 0.0	 3	   0.000000	   0.000000	   0.000000;
	2	 0.0	 0.0	 3	   0.000000	   0.000000	   0.000000;
	2	 0.0	 0.0	 3	   0.000000	   0.000000	   0.000000;
	2	 0.0	 0.0	 3	   0.000000	   0.000000	   0.000000;
	2	 0.0	 0.0	 3	   0.000000	   0.000000	   0.000000;
	2	 0.0	 0.0	 3	   0.000000	   0.000000	   0.000000;
	2	 0.0	 0.0	 3	   0.000000	   0.000000	   0.000000;
	2	 0.0	 0.0	 3	   0.000000	   0.000000	   0.000000;
	2	 0.0	 0.0	 3	   0.000000	   0.000000	   0.000000;
	2	 0.0	 0.0	 3	   0.000000	 134.980000	   0.000000;
	2	 0.0	 0.0	 3	   0.000000	   0.000000	   0.000000;
	2	 0.0	 0.0	 3	   0.000000	   0.000000	   0.000000;
	2	 0.0	 0.0	 3	   0.000000	   0.000000	   0.000000;
	2	 0.0	 0.0	 3	   0.000000	   0.000000	   0.000000;
	2	 0.0	 0.0	 3	   0.000000	   0.000000	   0.000000;
	2	 0.0	 0.0	 3	   0.000000	   0.000000	   0.000000;
	2	 0.0	 0.0	 3	   0.000000	   0.000000	   0.000000;
	2	 0.0	 0.0	 3	   0.000000	   0.000000	   0.000000;
	2	 0.0	 0.0	 3	   0.000000	   0.000000	   0.000000;
	2	 0.0	 0.0	 3	   0.000000	   0.000000	   0.000000;
	2	 0.0	 0.0	 3	   0.000000	   0.000000	   0.000000;
	2	 0.0	 0.0	 3	   0.000000	   0.000000	   0.000000;
	2	 0.0	 0.0	 3	   0.000000	   0.000000	   0.000000;
	2	 0.0	 0.0	 3	   0.000000	   0.000000	   0.000000;
	2	 0.0	 0.0	 3	   0.000000	   0.000000	   0.000000;
	2	 0.0	 0.0	 3	   0.000000	   0.000000	   0.000000;
	2	 0.0	 0.0	 3	   0.000000	   0.000000	   0.000000;
	2	 0.0	 0.0	 3	   0.000000	   0.000000	   0.000000;
	2	 0.0	 0.0	 3	   0.000000	   0.000000	   0.000000;
	2	 0.0	 0.0	 3	   0.000000	   0.000000	   0.000000;
	2	 0.0	 0.0	 3	   0.000000	   0.000000	   0.000000;
	2	 0.0	 0.0	 3	   0.000000	   0.000000	   0.000000;
	2	 0.0	 0.0	 3	   0.000000	   0.000000	   0.000000;
	2	 0.0	 0.0	 3	   0.000000	   0.000000	   0.000000;
	2	 0.0	 0.0	 3	   0.000000	   0.000000	   0.000000;
	2	 0.0	 0.0	 3	   0.000000	   0.000000	   0.000000;
	2	 0.0	 0.0	 3	   0.000000	 142.940000	   0.000000;
	2	 0.0	 0.0	 3	   0.000000	 128.220000	   0.000000;
	2	 0.0	 0.0	 3	   0.000000	   0.000000	   0.000000;
	2	 0.0	 0.0	 3	   0.000000	   0.000000	   0.000000;
	2	 0.0	 0.0	 3	   0.000000	   0.000000	   0.000000;
	2	 0.0	 0.0	 3	   0.000000	   0.000000	   0.000000;
	2	 0.0	 0.0	 3	   0.000000	   0.000000	   0.000000;
	2	 0.0	 0.0	 3	   0.000000	   0.000000	   0.000000;
	2	 0.0	 0.0	 3	   0.000000	   0.000000	   0.000000;
	2	 0.0	 0.0	 3	   0.000000	   0.000000	   0.000000;
	2	 0.0	 0.0	 3	   0.000000	 141.730000	   0.000000;
	2	 0.0	 0.0	 3	   0.000000	   0.000000	   0.000000;
	2	 0.0	 0.0	 3	   0.000000	   0.000000	   0.000000;
	2	 0.0	 0.0	 3	   0.000000	   0.000000	   0.000000;
	2	 0.0	 0.0	 3	   0.000000	   0.000000	   0.000000;
	2	 0.0	 0.0	 3	   0.000000	   0.000000	   0.000000;
	2	 0.0	 0.0	 3	   0.000000	   0.000000	   0.000000;
	2	 0.0	 0.0	 3	   0.000000	   0.000000	   0.000000;
	2	 0.0	 0.0	 3	   0.000000	   0.000000	   0.000000;
	2	 0.0	 0.0	 3	   0.000000	 100.820000	   0.000000;
	2	 0.0	 0.0	 3	   0.000000	 151.900000	   0.000000;
	2	 0.0	 0.0	 3	   0.000000	   0.000000	   0.000000;
	2	 0.0	 0.0	 3	   0.000000	   0.000000	   0.000000;
	2	 0.0	 0.0	 3	   0.000000	   0.000000	   0.000000;
	2	 0.0	 0.0	 3	   0.000000	   0.000000	   0.000000;
	2	 0.0	 0.0	 3	   0.000000	   0.000000	   0.000000;
	2	 0.0	 0.0	 3	   0.000000	   0.000000	   0.000000;
	2	 0.0	 0.0	 3	   0.000000	   0.000000	   0.000000;
	2	 0.0	 0.0	 3	   0.000000	 114.150000	   0.000000;
	2	 0.0	 0.0	 3	   0.000000	   0.000000	   0.000000;
	2	 0.0	 0.0	 3	   0.000000	   0.000000	   0.000000;
	2	 0.0	 0.0	 3	   0.000000	   0.000000	   0.000000;
	2	 0.0	 0.0	 3	   0.000000	   0.000000	   0.000000;
	2	 0.0	 0.0	 3	   0.000000	   0.000000	   0.000000;
	2	 0.0	 0.0	 3	   0.000000	   0.000000	   0.000000;
	2	 0.0	 0.0	 3	   0.000000	  87.950000	   0.000000;
	2	 0.0	 0.0	 3	   0.000000	 130.250000	   0.000000;
	2	 0.0	 0.0	 3	   0.000000	   0.000000	   0.000000;
	2	 0.0	 0.0	 3	   0.000000	   0.000000	   0.000000;
	2	 0.0	 0.0	 3	   0.000000	   0.000000	   0.000000;
	2	 0.0	 0.0	 3	   0.000000	   0.000000	   0.000000;
	2	 0.0	 0.0	 3	   0.000000	   0.000000	   0.000000;
	2	 0.0	 0.0	 3	   0.000000	   0.000000	   0.000000;
	2	 0.0	 0.0	 3	   0.000000	   0.000000	   0.000000;
	2	 0.0	 0.0	 3	   0.000000	   0.000000	   0.000000;
	2	 0.0	 0.0	 3	   0.000000	   0.000000	   0.000000;
	2	 0.0	 0.0	 3	   0.000000	 145.970000	   0.000000;
	2	 0.0	 0.0	 3	   0.000000	 137.580000	   0.000000;
	2	 0.0	 0.0	 3	   0.000000	 147.360000	   0.000000;
	2	 0.0	 0.0	 3	   0.000000	   0.000000	   0.000000;
	2	 0.0	 0.0	 3	   0.000000	   0.000000	   0.000000;
	2	 0.0	 0.0	 3	   0.000000	   0.000000	   0.000000;
	2	 0.0	 0.0	 3	   0.000000	   0.000000	   0.000000;
	2	 0.0	 0.0	 3	   0.000000	   0.000000	   0.000000;
	2	 0.0	 0.0	 3	   0.000000	   0.000000	   0.000000;
	2	 0.0	 0.0	 3	   0.000000	   0.000000	   0.000000;
	2	 0.0	 0.0	 3	   0.000000	   0.000000	   0.000000;
	2	 0.0	 0.0	 3	   0.000000	   0.000000	   0.000000;
	2	 0.0	 0.0	 3	   0.000000	   0.000000	   0.000000;
	2	 0.0	 0.0	 3	   0.000000	   0.000000	   0.000000;
	2	 0.0	 0.0	 3	   0.000000	  82.920000	   0.000000;
	2	 0.0	 0.0	 3	   0.000000	 133.590000	   0.000000;
	2	 0.0	 0.0	 3	   0.000000	   0.000000	   0.000000;
	2	 0.0	 0.0	 3	   0.000000	 152.950000	   0.000000;
	2	 0.0	 0.0	 3	   0.000000	  67.350000	   0.000000;
	2	 0.0	 0.0	 3	   0.000000	 134.930000	   0.000000;
	2	 0.0	 0.0	 3	   0.000000	   0.000000	   0.000000;
	2	 0.0	 0.0	 3	   0.000000	  61.320000	   0.000000;
	2	 0.0	 0.0	 3	   0.000000	   0.000000	   0.000000;
	2	 0.0	 0.0	 3	   0.000000	   0.000000	   0.000000;
	2	 0.0	 0.0	 3	   0.000000	   0.000000	   0.000000;
	2	 0.0	 0.0	 3	   0.000000	   0.000000	   0.000000;
	2	 0.0	 0.0	 3	   0.000000	   0.000000	   0.000000;
	2	 0.0	 0.0	 3	   0.000000	   0.000000	   0.000000;
	2	 0.0	 0.0	 3	   0.000000	   0.000000	   0.000000;
	2	 0.0	 0.0	 3	   0.000000	   0.000000	   0.000000;
	2	 0.0	 0.0	 3	   0.000000	   0.000000	   0.000000;
	2	 0.0	 0.0	 3	   0.000000	   0.000000	   0.000000;
	2	 0.0	 0.0	 3	   0.000000	   0.000000	   0.000000;
	2	 0.0	 0.0	 3	   0.000000	   0.000000	   0.000000;
	2	 0.0	 0.0	 3	   0.000000	   0.000000	   0.000000;
	2	 0.0	 0.0	 3	   0.000000	   0.000000	   0.000000;
	2	 0.0	 0.0	 3	   0.000000	   0.000000	   0.000000;
	2	 0.0	 0.0	 3	   0.000000	   0.000000	   0.000000;
	2	 0.0	 0.0	 3	   0.000000	  61.400000	   0.000000;
	2	 0.0	 0.0	 3	   0.000000	 114.990000	   0.000000;
	2	 0.0	 0.0	 3	   0.000000	 122.640000	   0.000000;
	2	 0.0	 0.0	 3	   0.000000	 118.840000	   0.000000;
	2	 0.0	 0.0	 3	   0.000000	   0.000000	   0.000000;
	2	 0.0	 0.0	 3	   0.000000	   0.000000	   0.000000;
	2	 0.0	 0.0	 3	   0.000000	   0.000000	   0.000000;
	2	 0.0	 0.0	 3	   0.000000	   0.000000	   0.000000;
	2	 0.0	 0.0	 3	   0.000000	   0.000000	   0.000000;
	2	 0.0	 0.0	 3	   0.000000	   0.000000	   0.000000;
	2	 0.0	 0.0	 3	   0.000000	   0.000000	   0.000000;
	2	 0.0	 0.0	 3	   0.000000	 143.830000	   0.000000;
	2	 0.0	 0.0	 3	   0.000000	  67.480000	   0.000000;
	2	 0.0	 0.0	 3	   0.000000	  88.000000	   0.000000;
	2	 0.0	 0.0	 3	   0.000000	   0.000000	   0.000000;
	2	 0.0	 0.0	 3	   0.000000	   0.000000	   0.000000;
	2	 0.0	 0.0	 3	   0.000000	   0.000000	   0.000000;
	2	 0.0	 0.0	 3	   0.000000	   0.000000	   0.000000;
	2	 0.0	 0.0	 3	   0.000000	   0.000000	   0.000000;
	2	 0.0	 0.0	 3	   0.000000	   0.000000	   0.000000;
	2	 0.0	 0.0	 3	   0.000000	 129.860000	   0.000000;
	2	 0.0	 0.0	 3	   0.000000	 108.160000	   0.000000;
	2	 0.0	 0.0	 3	   0.000000	   0.000000	   0.000000;
	2	 0.0	 0.0	 3	   0.000000	   0.000000	   0.000000;
	2	 0.0	 0.0	 3	   0.000000	   0.000000	   0.000000;
...
];

%% branch data
%	fbus	tbus	r	x	b	rateA	rateB	rateC	ratio	angle	status	angmin	angmax
mpc.branch = [
	16	 1	 0.00155	 0.01169	 0.0182	 160.0	 160.0	 160.0	 0.0	 0.0	 1	 -30.0	 30.0;
	355	 1	 0.00157	 0.06612	 0.0	 160.0	 160.0	 160.0	 1.0099	 0.0	 1	 -30.0	 30.0;
	17	 2	 0.00155	 0.01169	 0.0182	 160.0	 160.0	 160.0	 0.0	 0.0	 1	 -30.0	 30.0;
	354	 2	 0.00157	 0.06612	 0.0	 160.0	 160.0	 160.0	 1.022	 0.0	 1	 -30.0	 30.0;
	10	 3	 0.01068	 0.07895	 0.1226	 274.0	 274.0	 274.0	 0.0	 0.0	 1	 -30.0	 30.0;
	219	 3	 0.00165	 0.06736	 0.0	 160.0	 160.0	 160.0	 1.027	 0.0	 1	 -30.0	 30.0;
	220	 3	 0.00165	 0.06736	 0.0	 160.0	 160.0	 160.0	 0.9955	 0.0	 1	 -30.0	 30.0;
	7	 4	 0.01674	 0.09711	 0.14423	 377.0	 377.0	 377.0	 0.0	 0.0	 1	 -30.0	 30.0;
	11	 4	 0.00293	 0.01599	 0.02478	 335.0	 335.0	 335.0	 0.0	 0.0	 1	 -30.0	 30.0;
	14	 4	 0.00442	 0.03223	 0.04985	 464.0	 464.0	 464.0	 0.0	 0.0	 1	 -30.0	 30.0;
	16	 4	 0.00888	 0.06665	 0.08896	 377.0	 377.0	 377.0	 0.0	 0.0	 1	 -30.0	 30.0;
	22	 4	 0.00783	 0.043	 0.04962	 350.0	 350.0	 350.0	 0.0	 0.0	 1	 -30.0	 30.0;
	245	 4	 0.00165	 0.06901	 0.0	 160.0	 160.0	 160.0	 1.0594	 0.0	 1	 -30.0	 30.0;
	246	 4	 0.00165	 0.06901	 0.0	 160.0	 160.0	 160.0	 1.0448	 0.0	 1	 -30.0	 30.0;
	5	 6	 0.00064	 0.0305	 0.0	 400.0	 400.0	 400.0	 1.0435	 -0.6	 1	 -30.0	 30.0;
	7	 5	 0.00525	 0.03988	 0.06195	 381.0	 381.0	 381.0	 0.0	 0.0	 1	 -30.0	 30.0;
	10	 5	 0.01459	 0.11219	 0.16553	 381.0	 381.0	 381.0	 0.0	 0.0	 1	 -30.0	 30.0;
	309	 5	 0.00165	 0.0686	 0.0	 160.0	 160.0	 160.0	 1.0646	 0.0	 1	 -30.0	 30.0;
	309	 5	 0.00165	 0.0686	 0.0	 160.0	 160.0	 160.0	 1.0523	 0.0	 1	 -30.0	 30.0;
	6	 8	 0.00112	 0.01329	 0.34125	 1316.0	 1316.0	 1316.0	 0.0	 0.0	 1	 -30.0	 30.0;
	6	 9	 0.00299	 0.03675	 0.9184	 1427.0	 1427.0	 1427.0	 0.0	 0.0	 1	 -30.0	 30.0;
	15	 6	 0.00298	 0.03417	 0.93504	 1427.0	 1427.0	 1427.0	 0.0	 0.0	 1	 -30.0	 30.0;
	31	 6	 0.0015	 0.01506	 0.4032	 1385.0	 1385.0	 1385.0	 0.0	 0.0	 1	 -30.0	 30.0;
	310	 6	 0.0015	 0.06188	 0.0	 250.0	 250.0	 250.0	 1.0613	 0.0	 1	 -30.0	 30.0;
	12	 7	 0.01211	 0.08742	 0.14017	 381.0	 381.0	 381.0	 0.0	 0.0	 1	 -30.0	 30.0;
	13	 7	 0.00205	 0.01326	 0.02243	 335.0	 335.0	 335.0	 0.0	 0.0	 1	 -30.0	 30.0;
	19	 7	 0.0057	 0.0407	 0.06021	 323.0	 323.0	 323.0	 0.0	 0.0	 1	 -30.0	 30.0;
	21	 7	 0.00093	 0.00651	 0.01113	 160.0	 160.0	 160.0	 0.0	 0.0	 1	 -30.0	 30.0;
	29	 7	 0.01269	 0.07498	 0.1302	 362.0	 362.0	 362.0	 0.0	 0.0	 1	 -30.0	 30.0;
	321	 7	 0.00041	 0.03368	 0.0	 250.0	 250.0	 250.0	 1.0323	 0.0	 1	 -30.0	 30.0;
	322	 7	 0.00165	 0.06775	 0.0	 160.0	 160.0	 160.0	 1.0569	 0.0	 1	 -30.0	 30.0;
	8	 18	 0.00336	 0.03977	 1.02163	 1316.0	 1316.0	 1316.0	 0.0	 0.0	 1	 -30.0	 30.0;
	332	 9	 0.00087	 0.05244	 -0.02144	 330.0	 330.0	 330.0	 1.0781	 0.0	 1	 -30.0	 30.0;
	171	 10	 0.01409	 0.10413	 0.15972	 464.0	 464.0	 464.0	 0.0	 0.0	 1	 -30.0	 30.0;
	346	 10	 0.00124	 0.06839	 0.0	 160.0	 160.0	 160.0	 1.0054	 0.0	 1	 -30.0	 30.0;
	347	 10	 0.00124	 0.06839	 0.0	 160.0	 160.0	 160.0	 1.024	 0.0	 1	 -30.0	 30.0;
	16	 11	 0.0057	 0.03952	 0.07553	 464.0	 464.0	 464.0	 0.0	 0.0	 1	 -30.0	 30.0;
	17	 11	 0.0057	 0.03952	 0.07553	 464.0	 464.0	 464.0	 0.0	 0.0	 1	 -30.0	 30.0;
	111	 11	 0.01068	 0.06196	 0.09496	 394.0	 394.0	 394.0	 0.0	 0.0	 1	 -30.0	 30.0;
	352	 11	 0.00165	 0.06901	 0.0	 160.0	 160.0	 160.0	 1.0412	 0.0	 1	 -30.0	 30.0;
	353	 11	 0.00165	 0.06901	 0.0	 160.0	 160.0	 160.0	 1.0559	 0.0	 1	 -30.0	 30.0;
	140	 12	 0.01465	 0.10589	 0.17085	 464.0	 464.0	 464.0	 0.0	 0.0	 1	 -30.0	 30.0;
	359	 12	 0.00155	 0.06612	 0.0	 160.0	 160.0	 160.0	 1.0395	 0.0	 1	 -30.0	 30.0;
	360	 12	 0.00157	 0.06612	 0.0	 160.0	 160.0	 160.0	 1.059	 0.0	 1	 -30.0	 30.0;
	29	 13	 0.01345	 0.08114	 0.14113	 339.0	 339.0	 339.0	 0.0	 0.0	 1	 -30.0	 30.0;
	365	 13	 0.00165	 0.06901	 0.0	 160.0	 160.0	 160.0	 1.0312	 0.0	 1	 -30.0	 30.0;
	366	 13	 0.00165	 0.06901	 0.0	 160.0	 160.0	 160.0	 0.9872	 0.0	 1	 -30.0	 30.0;
	17	 14	 0.00384	 0.02853	 0.04588	 464.0	 464.0	 464.0	 0.0	 0.0	 1	 -30.0	 30.0;
	367	 14	 0.00157	 0.06798	 0.0	 160.0	 160.0	 160.0	 1.0664	 0.0	 1	 -30.0	 30.0;
	368	 14	 0.00165	 0.06901	 0.0	 160.0	 160.0	 160.0	 1.0777	 0.0	 1	 -30.0	 30.0;
	18	 15	 0.00358	 0.04262	 1.0944	 1662.0	 1662.0	 1662.0	 0.0	 0.0	 1	 -30.0	 30.0;
	15	 165	 0.00207	 0.02474	 0.664	 831.0	 831.0	 831.0	 0.0	 0.0	 1	 -30.0	 30.0;
	374	 15	 0.0015	 0.06188	 0.0	 250.0	 250.0	 250.0	 1.1502	 0.0	 1	 -30.0	 30.0;
	16	 18	 0.00036	 0.02519	 0.0	 500.0	 500.0	 500.0	 1.0605	 0.0	 1	 -30.0	 30.0;
	16	 73	 0.00909	 0.0624	 0.11142	 464.0	 464.0	 464.0	 0.0	 0.0	 1	 -30.0	 30.0;
	17	 18	 0.00036	 0.02519	 0.0	 500.0	 500.0	 500.0	 1.0607	 0.0	 1	 -30.0	 30.0;
	17	 74	 0.00868	 0.06405	 0.09699	 464.0	 464.0	 464.0	 0.0	 0.0	 1	 -30.0	 30.0;
	20	 18	 0.00063	 0.00749	 0.39226	 1427.0	 1427.0	 1427.0	 0.0	 0.0	 1	 -30.0	 30.0;
	75	 18	 0.00219	 0.02369	 0.59584	 1434.0	 1434.0	 1434.0	 0.0	 0.0	 1	 -30.0	 30.0;
	18	 76	 0.00137	 0.01625	 0.41184	 1662.0	 1662.0	 1662.0	 0.0	 0.0	 1	 -30.0	 30.0;
	18	 101	 0.00231	 0.02769	 0.70144	 1662.0	 1662.0	 1662.0	 0.0	 0.0	 1	 -30.0	 30.0;
	124	 19	 0.01696	 0.12366	 0.19699	 464.0	 464.0	 464.0	 0.0	 0.0	 1	 -30.0	 30.0;
	425	 19	 0.00165	 0.06818	 0.0	 160.0	 160.0	 160.0	 1.0241	 0.0	 1	 -30.0	 30.0;
	67	 20	 0.00331	 0.03425	 0.85888	 831.0	 831.0	 831.0	 0.0	 0.0	 1	 -30.0	 30.0;
	447	 20	 0.00137	 0.06119	 -0.01504	 250.0	 250.0	 250.0	 1.0796	 0.0	 1	 -30.0	 30.0;
	448	 20	 0.00137	 0.06119	 -0.01504	 250.0	 250.0	 250.0	 1.0923	 0.0	 1	 -30.0	 30.0;
	502	 21	 0.00165	 0.07107	 0.0	 160.0	 160.0	 160.0	 0.9922	 0.0	 1	 -30.0	 30.0;
	112	 22	 0.00465	 0.02618	 0.02962	 362.0	 362.0	 362.0	 0.0	 0.0	 1	 -30.0	 30.0;
	526	 22	 0.00165	 0.06901	 0.0	 160.0	 160.0	 160.0	 1.0685	 0.0	 1	 -30.0	 30.0;
	527	 22	 0.00165	 0.06901	 0.0	 160.0	 160.0	 160.0	 1.0424	 0.0	 1	 -30.0	 30.0;
	37	 23	 0.01163	 0.07031	 0.1058	 394.0	 394.0	 394.0	 0.0	 0.0	 1	 -30.0	 30.0;
	46	 23	 0.00837	 0.04868	 0.07348	 457.0	 457.0	 457.0	 0.0	 0.0	 1	 -30.0	 30.0;
	53	 23	 0.01122	 0.06558	 0.09835	 274.0	 274.0	 274.0	 0.0	 0.0	 1	 -30.0	 30.0;
	540	 23	 0.0014	 0.0668	 0.0	 160.0	 160.0	 160.0	 1.0182	 0.0	 1	 -30.0	 30.0;
	54	 24	 0.00769	 0.05727	 0.08789	 160.0	 160.0	 160.0	 0.0	 0.0	 1	 -30.0	 30.0;
	545	 24	 0.00151	 0.06715	 0.0	 160.0	 160.0	 160.0	 1.0161	 0.0	 1	 -30.0	 30.0;
	41	 25	 0.00556	 0.04145	 0.0636	 274.0	 274.0	 274.0	 0.0	 0.0	 1	 -30.0	 30.0;
	53	 25	 0.00452	 0.03368	 0.05169	 464.0	 464.0	 464.0	 0.0	 0.0	 1	 -30.0	 30.0;
	54	 25	 0.00019	 0.0014	 0.00213	 464.0	 464.0	 464.0	 0.0	 0.0	 1	 -30.0	 30.0;
...